18

O          1.09171        0.13010       -0.06988
C          2.36714        0.03823       -0.07137
O          3.06693       -0.47892        0.85150
C          3.08796        0.58915       -1.27653
C          2.70139        1.80456       -1.84958
C          3.33789        2.28665       -3.00047
C          4.37656        1.56565       -3.62723
C          4.77729        0.34263       -3.04413
C          4.15144       -0.11314       -1.86737
N          5.89117       -0.34780       -3.52809
C          4.99603        2.10909       -4.91405
O          4.54825        3.21328       -5.37040
O          5.91855        1.42284       -5.48089
H          1.89390        2.37208       -1.39346
H          3.01592        3.23356       -3.42879
H          4.47155       -1.04444       -1.40767
H          6.18351       -0.00996       -4.46122
H          6.07800       -1.29373       -3.25007
