50

O          1.08384       -0.09708        0.10455
C          2.35603       -0.04704        0.03100
O          3.03163       -0.16351       -1.04176
C          3.14871        0.09704        1.34379
C          4.30410        0.87713        1.51561
C          5.15463        0.91072        2.77339
C          4.81812        0.29648        4.00456
C          3.63795       -0.55245        3.69964
C          2.82660       -0.63060        2.46858
N          5.45274        0.45484        5.60298
C          4.89337       -0.51392        6.38894
O          3.97010       -1.29420        6.25534
C          5.53473       -0.51368        7.66237
C          6.07120       -1.58675        8.30798
C          6.87827       -1.27513        9.44957
C          7.14780        0.11897        9.77623
C          5.64646        0.89863        9.50525
C          5.43172        0.70166        8.27685
C          6.51856        1.40266        8.42773
C          6.58761        1.40622        6.45693
O          7.48943        1.87942        5.76751
C          6.81702        2.09654       10.24315
C          6.35426        3.08813       10.96688
C          5.59491        2.64097        9.95752
C          6.30011        3.45319        8.69513
O          5.82992        3.44568        7.56102
N          7.73735        3.39040        8.83391
C          8.43945        1.68265        9.39989
O          9.31930        1.48142       10.30429
C          7.44013        5.19077        8.40154
C          8.09160        6.45301        8.28276
C          7.61242        7.87047        7.50204
C          6.46929        8.16971        6.72248
C          5.58618        7.14629        6.93080
C          6.01215        5.81126        7.75093
C          6.29860        9.39867        5.71866
O          7.26880       10.22661        5.63898
O          5.22966        9.49097        5.02291
H          4.55002        1.52710        0.66584
H          6.11898        1.37333        2.61365
H          3.21309       -1.26833        4.39474
H          1.92171       -1.25289        2.41108
H          5.77261       -2.56502        7.92976
H          6.47071       -1.97202       10.25198
H          6.99830        1.31745       11.29916
H          7.33637        3.63204       11.24144
H          9.08596        6.63141        8.63234
H          8.29245        8.73956        7.51990
H          4.60239        7.28952        6.42558
H          5.03734        5.26345        7.71757
