14

O          1.21733        0.06211        0.01061
C          2.47553       -0.09502       -0.00040
O          3.13853       -1.16689       -0.07546
C          3.26690        1.21384        0.09127
C          4.60843        1.27193        0.09534
C          5.35833        2.51128        0.18213
C          6.70011        2.57050        0.18628
C          7.49116        3.87951        0.27796
O          6.82792        4.95120        0.35301
O          8.74940        3.72261        0.26697
H          2.67338        2.12057        0.15477
H          5.17381        0.34432        0.03037
H          4.79271        3.43881        0.24709
H          7.29396        1.66397        0.12279
