101

O          1.09053       -0.03620       -0.02223
C          2.51053       -0.03620       -0.02223
O          3.14598       -0.64791       -0.93721
C          3.27053        0.69540        1.07210
C          3.92246        1.32297        2.01082
C          4.68246        2.05458        3.10515
O          5.13035        1.41225        4.10614
O          4.89202        3.45574        3.00905
O          5.18774        3.67219        4.44228
Zn         3.19244        2.24197        1.73734
O          3.46449        3.45887        2.62423
C          2.08093        3.48359        7.85966
C          1.31232        2.54230        6.94663
C          0.65300        1.73487        6.16344
C         -0.11561        0.79359        5.25041
O          0.01185        1.23003        3.90517
Zn         3.56169       -0.95077        4.67884
O          5.67514       -0.04570        7.43037
Zn         5.54486       -1.28961        6.73836
O          3.24847        2.83144        8.33711
O          5.22179       -0.35341        9.17770
O          6.17522       -0.93438        8.47354
C          6.55052       -2.15251        9.09942
O          7.96720       -0.25939        6.66988
Zn         6.50742        0.92229        6.58572
O          5.66300        1.95547        6.07546
C          6.17499        2.60051        4.90778
C          6.36513        1.57315        3.80380
C          5.16201       -3.35499        5.18827
C          4.04461       -3.10164        6.18708
O          2.92958       -2.51128        5.51530
O          2.36863       -3.33291        4.48905
C          1.28349       -2.55017        3.74635
O          1.89053       -1.51847        2.96497
O          0.95531       -0.63378        2.34473
C          1.70840        0.37748        1.47838
O          2.10303        1.49173        2.28034
C          2.94277       -0.28284        0.88618
C          7.06018       -1.86530       10.50233
O          1.87710        1.67526        5.76044
C          2.00456        2.11170        4.41520
O          1.28652        1.23234        3.56223
C          3.47237        2.11436        4.02030
C          4.73145        2.11665        3.68157
C          6.19926        2.11931        3.28667
O          6.84918        1.02781        3.24911
O          6.84433        3.34135        2.95974
O          8.11900        3.34367        2.61680
C          8.76408        4.56571        2.28987
O          8.11416        5.65721        2.32743
C         10.23188        4.56837        1.89498
C         11.49096        4.57066        1.55624
C         12.95877        4.57332        1.16134
O         13.68210        5.58808        1.41085
O         13.52182        3.44200        0.51366
O         14.79649        3.44431        0.17073
C         15.12013        2.21216       -0.45654
C         14.26168        2.03495       -1.69834
C         13.52530        1.88293       -2.76355
C         12.66685        1.70572       -4.00534
O         12.14511        2.71931       -4.56713
O         16.49137        2.21465       -0.82545
O         16.79221        1.06927       -1.40855
C         18.11450        0.83274       -1.86899
O         19.00830        1.72383       -1.71968
C         18.46093       -0.48618       -2.54043
C         18.75810       -1.61755       -3.11640
C         19.10453       -2.93647       -3.78784
O         20.31022       -3.19586       -4.09476
O         18.08102       -3.87880       -4.07218
C          0.51488       -3.49146        2.83333
C         -0.14443       -4.29890        2.05013
C         -0.91303       -5.24019        1.13710
O         -0.28483       -6.03857        0.37347
O         -2.33297       -5.22750        1.13736
O         -3.00045       -6.04494        0.34447
C         -4.39478       -5.84558        0.52473
O         -4.72589       -4.50196        0.20625
O         -4.05842       -3.68453        0.99914
C         -4.22340       -2.27989        0.87192
O         -5.01370       -1.80977       -0.00534
C         -3.45479       -1.33861        1.78495
C         -2.79548       -0.53117        2.56815
C         -2.02687        0.41011        3.48118
O          1.99010       -2.26350        6.40882
O         -0.65563        0.41260        3.11227
C         -5.16339       -6.78687       -0.38830
C         -5.82269       -7.59431       -1.17149
C         -6.59130       -8.53560       -2.08452
O         -7.84658       -8.67450       -1.94250
O         -5.90679       -9.25978       -3.09616
O         -6.57427      -10.07721       -3.88906
C         -5.88976      -10.80139       -4.90070
O         -4.63448      -10.66250       -5.04272
C         -6.65836      -11.74268       -5.81373
C         -7.31767      -12.55012       -6.59692
C          5.00563        2.49040        8.29242
O          4.85432        3.36745        9.19966
O          5.50585        2.86641        7.01775
O          4.54203       -2.15233        7.27930
O         -1.48685        0.79111        5.61931
