50

O          1.10776       -0.13677        0.13548
C          2.37864       -0.03805        0.11558
O          3.03801        0.76740       -0.61838
C          3.20454       -1.00168        0.98941
C          4.41325       -0.65903        1.61651
C          5.35618       -1.63687        2.29646
C          5.07229       -3.00124        2.55915
C          3.81108       -3.27151        1.81887
C          2.90349       -2.34008        1.11341
N          5.82669       -4.20283        3.55161
C          5.26344       -5.41084        3.26202
O          4.27936       -5.77258        2.64690
C          5.99210       -6.43631        3.92883
C          6.45411       -7.59256        3.38171
C          7.30862       -8.36921        4.22852
C          7.73822       -7.82297        5.51433
C          6.32267       -7.08994        6.14400
C          6.00640       -6.22746        5.28096
C          7.15348       -5.97049        5.83824
C          7.08624       -4.35443        4.70125
O          7.97937       -3.51601        4.59525
C          7.60424       -7.05113        7.42228
C          7.31948       -7.02468        8.70102
C          6.50300       -6.42510        7.82475
C          7.30753       -4.97015        7.65105
O          6.85083       -4.02447        7.01980
N          8.69932       -5.20090        7.57450
C          9.17867       -6.67636        6.43531
O         10.06296       -7.56233        6.67346
C          8.58599       -3.80091        8.82455
C          9.28437       -2.97445        9.79143
C          8.81712       -1.53796       10.58943
C          7.65313       -0.74274       10.46225
C          6.77447       -1.48325        9.72517
C          7.19636       -2.88563        9.04162
C          7.43026        0.74963       10.97994
O          8.38487        1.29422       11.63109
O          6.33066        1.34295       10.70561
H          4.63596        0.41665        1.60905
H          6.33711       -1.20944        2.45698
H          3.39443       -4.26365        1.68749
H          1.95575       -2.68335        0.67406
H          6.02931       -7.84096        2.40778
H          6.80889       -9.39713        4.19574
H          7.69966       -8.37291        7.39428
H          8.37744       -7.04103        9.16471
H         10.30777       -3.11281       10.08906
H          9.50613       -1.06453       11.31664
H          5.77825       -1.00856        9.58407
H          6.21460       -3.13874        8.58223
