22

N          1.21742        0.13455       -0.01171
C          2.37841        0.05309       -0.00971
C          3.81537        0.02437       -0.00915
C          4.51133        1.26623       -0.00807
C          5.90883        1.32173       -0.00611
C          6.61493        2.59047       -0.00527
C          7.20660        3.64518       -0.00530
C          7.95666        4.98879       -0.00776
O          7.37197        5.96004       -0.57612
O          9.09145        5.00530        0.55829
C          6.60414        0.10841       -0.00378
C          5.92294       -1.14152       -0.00550
C          4.51487       -1.19907       -0.00915
C          3.80664       -2.47248       -0.01206
C          3.21456       -3.52587       -0.01527
C          2.46500       -4.86648       -0.02137
O          3.10662       -5.86786       -0.45926
O          1.27394       -4.85092        0.41164
C          6.71367       -2.34151       -0.00042
N          7.40457       -3.27808        0.00719
H          3.94929        2.20112       -0.00837
H          7.69482        0.13140        0.00070
