15

O          1.05736       -0.21588       -0.03689
C          2.43917       -0.10546       -0.03581
C          3.06464        1.09255       -0.03421
C          2.30464        2.40891       -0.03047
C          1.65271        3.53807       -0.02726
C          0.88842        4.84994       -0.03986
O          0.99303        5.56973        0.99689
O          0.21564        5.09205       -1.08543
C          3.16001       -1.35315       -0.03463
C          3.73545       -2.41895       -0.03314
C          4.48054       -3.75998       -0.03655
O          5.66208       -3.74460       -0.50124
O          3.86370       -4.76829        0.42713
H          0.68958        0.68610       -0.04137
H          4.14779        1.15468       -0.03373
