23

O          1.13913       -0.02428       -0.18286
C          2.40545        0.02609       -0.10651
O          3.08564        0.62730        0.78061
C          3.20051       -0.71711       -1.19393
C          3.81779       -1.30964       -2.05272
C          4.48298       -2.04245       -3.11755
C          5.12262       -1.38917       -4.17521
C          5.65228       -2.11394       -5.27179
C          5.44388       -3.49338       -5.40119
C          4.83018       -4.16231       -4.32698
C          4.43668       -3.44045       -3.16319
C          4.50461       -5.62928       -4.40174
C          5.81101       -4.18506       -6.62445
C          6.05989       -4.81505       -7.63200
C          6.35426       -5.62391       -8.89980
O          6.34732       -4.97965       -9.99271
O          6.58299       -6.86343       -8.74836
H          5.20014       -0.30459       -4.17091
H          6.20019       -1.58273       -6.04645
H          4.04925       -3.98166       -2.30195
H          4.76986       -6.07570       -5.36352
H          3.42423       -5.76606       -4.28522
H          5.03700       -6.18060       -3.62342
