22

O          1.08578        0.11033       -0.16311
C          2.35183        0.04798       -0.09585
O          3.03422       -0.56041        0.78403
C          3.14123        0.79160       -1.18759
C          3.75013        1.38820       -2.04630
C          4.42809        2.15306       -3.08051
C          4.24912        3.54102       -3.15101
C          4.83979        4.29746       -4.18577
O          4.62559        5.65252       -4.23700
C          5.63620        3.70199       -5.17520
C          5.83004        2.31361       -5.08331
C          5.24004        1.54772       -4.05022
O          6.59232        1.62393       -5.99755
C          6.21995        4.49906       -6.23743
C          6.70096        5.17660       -7.11809
C          7.30715        6.04471       -8.21950
O          6.50199        6.75110       -8.89822
O          8.56469        5.96472       -8.36546
H          3.63587        4.02645       -2.39719
H          4.04320        5.91694       -3.51067
H          5.41602        0.47491       -4.02167
H          6.92684        2.26731       -6.65249
