8

O          0.90597        0.01739       -0.02927
C          2.32597        0.01739       -0.02927
O          2.96142        0.90207        0.62549
C          3.08597       -1.04070       -0.81237
C          3.73790       -1.94833       -1.48412
C          4.49790       -3.00642       -2.26722
O          5.54908       -3.52657       -1.77766
O          4.03340       -3.41373       -3.54579
