34

O          1.14748        0.08088        0.01673
C          2.41509        0.07824       -0.09623
O          3.08949       -0.59329       -0.93687
C          3.18770        0.93695        0.87476
C          2.79465        1.01912        2.21074
C          3.59274        1.68784        3.13739
C          4.79476        2.30019        2.74551
C          5.17042        2.34079        1.38397
C          4.34629        1.62722        0.47242
C          6.37745        3.02843        1.01211
C          6.67395        3.37982       -0.32016
C          7.88596        3.96973       -0.67675
C          8.90201        4.11769        0.26623
C          8.64720        3.80240        1.61981
C          7.32525        3.38501        2.00494
C          6.90926        3.30895        3.34988
C          5.64491        2.84211        3.70794
C          9.75252        3.87015        2.51069
C         11.04972        4.23777        2.10291
C         11.23675        4.59912        0.76632
C         10.17576        4.54829       -0.13829
C         12.21383        4.21671        3.07660
O         13.35403        4.55828        2.62803
O         11.96813        3.85965        4.27394
H          1.88759        0.50959        2.52829
H          3.29018        1.68160        4.18062
H          4.63653        1.52620       -0.57242
H          5.93521        3.22818       -1.10391
H          8.04487        4.25349       -1.71357
H          7.56311        3.65310        4.14807
H          5.36414        2.84693        4.75759
H          9.63847        3.56333        3.54960
H         12.22824        4.89394        0.42828
H         10.36772        4.80856       -1.17553
