9

O          1.05792       -0.01499       -0.03403
C          2.33002       -0.04572       -0.11450
O          3.02802       -0.41986       -1.09421
C          3.00365        0.43008        1.13143
C          4.24401        0.57577        1.51292
C          5.32002        0.95608        2.50881
O          4.86219        1.37833        3.61451
O          6.54526        0.83479        2.19120
H          2.30757        0.72679        1.90838
