12

V          1.03784       -0.07826        0.04943
O          3.22784       -0.07826        0.04943
V          3.95783       -0.10922        2.11395
O          2.57241       -0.52141        3.75919
O          6.07324        0.27200        2.53323
O          4.51401       -0.13672        0.67979
O          4.32678       -1.60157        2.20171
V          4.19796       -1.64102        0.67001
O          5.92638       -2.98131        0.55917
O          2.17995       -2.47001        0.86108
O          4.48756        0.52827        0.58979
V          2.80656        1.45051       -0.46843
