15

N          0.95049        0.01881       -0.08482
C          2.21146        0.01881       -0.08482
C          3.73146        0.01881       -0.08482
C          4.36308        0.82871        0.79565
C          3.69885        1.70934        1.75302
C          4.33283        2.51017        2.62363
C          3.58405        3.41810        3.61068
O          2.32357        3.38941        3.57949
O          4.34736        4.10336        4.35566
C          4.47485       -0.88518       -1.06760
O          3.75868       -1.59024       -1.83409
O          5.74178       -0.83929       -1.01770
H          5.45181        0.83896        0.80679
H          2.60880        1.72547        1.77056
H          5.41536        2.54820        2.66498
