14

O          1.13074       -0.08981       -0.15575
C          2.39488       -0.08704       -0.06051
O          3.08508       -0.05383        1.00183
C          3.16757       -0.13031       -1.36467
C          3.81950       -0.16810       -2.49321
C          4.57950       -0.21216       -3.80883
C          4.15265        0.52988       -4.86613
C          4.91265        0.48582       -6.18175
C          5.56458        0.44803       -7.31029
C          6.33597        0.39853       -8.61529
O          5.71399        0.78469       -9.64970
O          7.52906       -0.02352       -8.54538
H          5.45658       -0.84723       -3.85986
H          3.27554        1.16487       -4.81540
