9

N          1.08686       -0.04096       -0.02789
C          2.34782       -0.04096       -0.02789
C          3.86782       -0.04096       -0.02789
C          4.54802        0.69875       -0.94487
C          3.78802        1.52524       -1.96943
N          3.15754        2.21088       -2.81938
O          5.92788        0.74356       -1.00042
H          4.34927       -0.64893        0.72577
H          6.30517        0.18119       -0.30328
