12

O          1.10277       -0.05961        0.17477
C          2.36933       -0.00550        0.11689
O          3.06164        0.72073       -0.66007
C          3.14180       -0.90868        1.08277
C          3.75408       -1.62141        1.84476
C          4.54762       -2.54616        2.83496
C          5.15546       -3.25848        3.60273
C          5.93943       -4.18052        4.60308
C          6.54243       -4.89051        5.37496
C          7.30655       -5.79124        6.35014
O          7.78828       -6.86392        5.87335
O          7.39227       -5.38750        7.55005
