16

N          1.28628        0.01704        0.02870
N          2.52813       -0.05394       -0.01329
C          3.08496       -1.09361       -0.75982
C          2.40476       -2.05187       -1.44520
C          0.88476       -2.05187       -1.44520
C         -0.41910       -2.05187       -1.44520
C         -1.93496       -2.03583       -1.43175
O         -2.51113       -2.86556       -2.19652
O         -2.48428       -1.19415       -0.65629
C          4.60496       -1.09361       -0.75982
C          5.90881       -1.09361       -0.75982
C          7.42286       -1.10933       -0.75773
O          7.99796        0.00744       -0.90363
O          7.96779       -2.24673       -0.61215
H          0.85864        0.76531        0.57391
H          2.90702       -2.83168       -2.00238
