16

O          1.19305       -0.03077        0.15641
C          2.46212        0.02224        0.05889
O          3.14817       -0.39079       -0.92771
C          3.21269        0.64082        1.20988
C          2.87932        0.36006        2.53588
C          3.57222        0.97650        3.58961
C          4.61239        1.91406        3.36657
C          4.93891        2.18625        2.02689
C          4.25912        1.54151        0.97358
Cl         6.14766        3.31969        1.51679
C          5.28722        2.54875        4.57560
O          4.87715        2.17920        5.72699
O          6.21436        3.40365        4.40658
H          2.07606       -0.34296        2.74499
H          3.28995        0.73115        4.61334
H          4.52921        1.75378       -0.05894
