20

O          1.17836       -0.15586       -0.21296
C          2.44380       -0.07606       -0.15592
O          3.12057        0.78527        0.48471
C          3.24596       -1.12327       -0.94585
C          3.86814       -1.95715       -1.56723
C          4.53417       -2.98971       -2.34055
C          5.38916       -2.68134       -3.40436
C          5.82081       -3.69075       -4.29390
F          6.50402       -3.31554       -5.38704
C          5.53239       -5.04350       -4.07955
C          4.83057       -5.36308       -2.91346
C          4.29324       -4.34630       -2.09631
F          3.50932       -4.71421       -1.07072
C          5.90403       -6.06802       -5.03432
C          6.18045       -6.91903       -5.85472
C          6.52698       -7.98993       -6.89781
O          5.55702       -8.65542       -7.37382
O          7.75536       -8.12283       -7.18635
H          5.71140       -1.65960       -3.58204
H          4.66162       -6.39906       -2.63623
