14

O         -1.50100        0.27700        0.10000
Zr        -0.76900        1.02600        1.21500
O         -2.40231       -2.40518       -1.51246
Zr        -1.24900       -1.22500        0.24400
O         -1.38272        3.11911       -1.48583
Zr        -0.98500        0.75300       -1.25900
O          0.85267        3.59127       -0.47160
Zr         1.24900        1.22500       -0.24400
O          0.73200        0.75000        1.11500
Zr         0.98500       -0.75300        1.25900
O          0.25300       -1.50200        0.14400
Zr         0.76900       -1.02600       -1.21500
O          0.51700        0.47600       -1.35900
O          0.17111       -1.50334        3.39972
