20

O          1.23019       -0.18928        0.19340
C          2.49682       -0.12354        0.13875
O          3.18387        0.57168       -0.67097
C          3.27722       -0.96918        1.15860
C          3.88332       -1.64522        1.96164
C          4.58970       -2.49920        2.90086
C          5.55690       -2.00523        3.78492
C          6.31105       -2.87922        4.60962
C          6.03867       -4.25080        4.65442
C          4.98235       -4.72069        3.86735
C          4.31340       -3.86913        2.95557
C          6.83700       -5.15060        5.46400
C          7.53036       -5.90670        6.11302
C          8.41155       -6.86779        6.92275
O          8.45318       -8.07218        6.52455
O          9.02046       -6.37638        7.92213
H          5.74279       -0.93566        3.84363
H          7.11582       -2.47695        5.22125
H          4.66858       -5.75826        3.94853
H          3.56736       -4.28887        2.28483
