10

O          1.03454       -0.08537       -0.07920
C          2.29470        0.00848        0.04245
O          2.95122        0.66865        0.89823
C          3.08999       -0.79184       -0.99499
C          4.43417       -0.84867       -1.06866
C          5.22946       -1.64898       -2.10610
O          4.57294       -2.30915       -2.96188
O          6.48961       -1.55513       -1.98445
H          2.50524       -1.35180       -1.72086
H          5.01892       -0.28871       -0.34278
