21

O          1.26744        0.19339       -0.08650
C          2.53336        0.11810       -0.02250
O          3.20720       -0.62997        0.75034
C          3.33717        1.02650       -0.97162
C          3.96044        1.74294       -1.72316
C          4.62745        2.63558       -2.65869
C          4.45758        4.02092       -2.55846
C          4.98800        4.90000       -3.53329
C          5.59814        4.40955       -4.69453
C          5.80960        3.02486       -4.76446
C          5.39733        2.15797       -3.72666
O          6.39395        2.43614       -5.86055
C          5.95414        5.30624       -5.77706
C          6.22870        6.02423       -6.71626
C          6.57063        6.92457       -7.90764
O          5.86690        7.96959       -8.04868
O          7.52735        6.53933       -8.64589
H          3.88885        4.42950       -1.72575
H          4.88928        5.97264       -3.38571
H          5.66002        1.10539       -3.78216
H          6.50547        3.12384       -6.54588
