64

O          1.09495       -0.01792        0.11145
C          2.36544        0.06269        0.10655
O          3.04696        0.94890       -0.50245
C          3.17144       -1.01552        0.83285
C          4.36136       -0.75308        1.51749
C          5.33084       -1.82891        1.99303
C          5.13807       -3.23286        2.04863
C          3.82553       -3.39004        1.30713
C          2.88458       -2.36178        0.75158
N          6.11088       -4.56851        2.74505
C          5.37299       -5.66082        2.55635
O          4.37454       -5.91719        1.91075
C          6.10003       -6.50771        3.46227
C          6.46610       -7.70293        3.31454
C          7.15706       -7.90028        4.94578
C          8.19932       -6.73583        6.16404
C          7.03676       -6.67092        5.90197
C          7.11460       -6.09884        4.43938
C          8.57637       -6.66172        4.18890
C          7.66915       -4.92496        3.62842
O          7.97363       -3.76381        3.91661
C          9.04502       -8.21110        5.37358
C          8.22397       -8.47350        7.02919
C          7.17558       -7.13869        7.15036
C          7.06557       -5.77788        7.53998
C          8.09130       -4.90654        7.38879
C          9.12007       -5.54079        7.61563
C          9.74626       -4.36224        9.01643
C          8.85435       -3.01886        9.41400
C          7.76327       -2.81392        8.29684
C          7.87528       -4.01917        8.29713
C          6.80277       -3.83267        8.91396
C          5.86585       -4.47961        8.04311
C          5.99293       -5.25633        7.04530
C          6.70379       -1.97650        9.63563
O          7.68055       -1.15457        9.67080
N          5.67543       -1.35890        9.25366
C          5.76515       -2.27428        8.42017
O          4.61184       -2.70318        8.18644
C          5.28162       -0.37960       10.03946
C          4.17411       -0.20043       10.77377
C          3.90607        1.12369       11.10336
C          4.81024        2.18945       10.90750
C          5.94427        1.93304       10.19080
C          6.16245        0.67803        9.76872
C          4.58877        3.56159       11.49578
O          3.53229        3.71683       12.18283
O          5.48706        4.44482       11.30669
H          4.56198        0.31151        1.72454
H          6.29820       -1.42767        2.20353
H          3.40694       -4.35190        1.02657
H          1.92898       -2.63373        0.27421
H          6.27217       -8.03352        2.11807
H          7.30353       -8.89397        4.16955
H          8.36824       -9.45433        5.30937
H          8.75712       -8.30906        8.02196
H         10.50569       -3.68893       10.03292
H          8.54125       -2.59799       10.56524
H          4.86205       -4.46239        8.16648
H          5.23039       -5.85258        6.57180
H          3.57147       -1.02271       11.11177
H          2.93669        1.37497       11.49455
H          6.64447        2.69233        9.90580
H          7.06567        0.54988        9.16933
