20

O          1.10239        0.22597       -0.02141
C          2.36797        0.13944       -0.03743
O          3.05685       -0.90528       -0.24246
C          3.14657        1.43870        0.21450
C          3.76532        2.45799        0.41567
C          4.50083        3.68921        0.65988
C          3.85407        4.91393        0.45144
C          4.51021        6.14377        0.67728
Cl         3.59405        7.58531        0.37629
C          5.84142        6.19648        1.12340
C          6.49950        4.96522        1.33397
C          5.83712        3.72189        1.10211
Cl         6.68146        2.21952        1.36431
Cl         8.15476        4.97371        1.89188
C          6.50178        7.47186        1.35303
C          7.03955        8.54034        1.53948
C          7.71458        9.89318        1.77316
O          7.08904       10.71761        2.50621
O          8.83835       10.06768        1.21210
H          2.82045        4.91733        0.10775
