20

O          1.09516       -0.02707       -0.22282
C          2.36122       -0.01692       -0.13444
O          3.04556        0.15843        0.91975
C          3.15131       -0.23861       -1.43482
C          3.77458       -0.41610       -2.45888
C          4.47593       -0.63564       -3.71106
C          4.91776        0.43357       -4.50045
C          5.53292        0.21529       -5.76025
C          5.60701       -1.06932       -6.31404
C          5.19373       -2.12968       -5.50229
C          4.69943       -1.92583       -4.19735
F          5.23951       -3.38901       -5.96552
C          6.05884       -1.28526       -7.67479
C          6.40110       -1.47580       -8.82397
C          6.83021       -1.71081      -10.27875
O          7.34805       -0.71926      -10.87859
O          6.63476       -2.87004      -10.75667
H          4.77586        1.45343       -4.14807
H          5.93367        1.06414       -6.31008
H          4.47297       -2.79283       -3.58505
