8

O          1.21238       -0.12458        0.06803
C          2.48206       -0.08599        0.00659
O          3.17005        0.42586       -0.93254
C          3.25069       -0.71052        1.16561
C          3.86278       -1.20616        2.08421
C          4.63482       -1.83290        3.24002
O          4.94520       -3.06078        3.12609
O          4.90769       -1.07920        4.22721
