14

O          1.08049       -0.05847        0.01011
C          2.50049       -0.05847        0.01011
O          3.13594       -0.07153       -1.09045
C          3.26049       -0.04285        1.32637
C          4.62089       -0.04285        1.32637
C          5.38089       -0.02723        2.64264
C          6.74129       -0.02723        2.64264
C          7.50129       -0.01161        3.95891
O          6.86584        0.00145        5.05946
O          8.92129       -0.01161        3.95891
H          2.74449       -0.03225        2.22005
H          5.13689       -0.05345        0.43270
H          4.86489       -0.01663        3.53632
H          7.25729       -0.03784        1.74896
