14

O          1.17566       -0.21387        0.14608
C          2.43496       -0.29120        0.25280
O          3.11476       -0.91633        1.11554
C          3.21151        0.47072       -0.79871
C          4.50935        0.65691       -1.05567
C          5.03613        1.45791       -2.16113
C          4.40062        2.15529       -3.12357
C          2.97320        2.50220       -3.60234
O          1.97182        2.07327       -3.01037
O          2.97922        3.25259       -4.63794
Br         6.95315        1.49260       -2.20901
H          2.48604        0.93463       -1.43895
H          5.22849        0.17650       -0.39267
H          5.05665        2.66991       -3.83380
