18

O          1.17468       -0.00044        0.04549
C          2.45153        0.03300       -0.01460
O          3.11521        0.05289       -1.10339
C          3.22494        0.02840        1.29040
C          4.40381        0.78806        1.44961
C          5.21830        0.66184        2.59731
C          4.75721       -0.16522        3.64589
C          3.57753       -0.93281        3.53614
C          2.82807       -0.81607        2.34710
C          3.17029       -1.91438        4.62798
O          3.88629       -1.98180        5.68249
O          2.13103       -2.63459        4.43434
C          6.60046        1.30469        2.66238
O          6.98512        2.01853        1.67712
O          7.32212        1.08303        3.69588
H          4.71401        1.45654        0.64767
H          5.35732       -0.24846        4.55203
H          1.93471       -1.42663        2.22096
