101

O          0.94165       -0.07884       -0.01949
C          2.36165       -0.07884       -0.01949
O          2.99710        0.83517        0.59368
C          3.12165       -1.17199       -0.75285
C          3.77358       -2.10970       -1.38192
C          4.53358       -3.20286       -2.11528
O          4.02826       -3.74520       -3.14761
O          5.80818       -3.61813       -1.64694
O          5.29125       -2.66331       -2.65171
Zn         6.22752       -3.56712        0.76150
O          5.14914       -3.60137       -0.32356
C          4.16650       -1.56602       -2.53988
C          4.77165       -1.59334       -1.14580
C          5.29075       -1.61678        0.05003
C          5.89591       -1.64410        1.44411
O          6.67673       -2.82010        1.59820
Zn         7.74818        0.47785        0.20633
O          7.25283        1.68516       -3.13339
Zn         8.35969        1.85761       -2.24555
O          3.33838       -2.70558       -2.71882
O          9.24818        3.89286       -3.65962
O          9.70059        2.72772       -3.23514
C         10.83869        2.93354       -2.41126
O          8.65979        0.83689       -4.91620
Zn         7.30145        0.28115       -3.74128
O          6.24457       -0.51032       -3.19587
C          6.47280       -1.91860       -3.27559
C          7.74640       -2.26871       -2.52341
C         10.25025        1.86201       -0.44528
C          9.07514        2.77190       -0.12650
O          8.25640        2.16059        0.87304
O          8.92922        1.92881        2.11261
C          8.00934        1.14669        3.05278
O          7.86178       -0.19109        2.57108
O          6.90500       -0.96665        3.29570
C          6.88502       -2.39407        2.74580
O          5.98248       -2.46669        1.64101
C          8.28146       -2.77904        2.28521
C         11.92282        3.63704       -3.21136
O          6.29678       -1.62618       -0.75757
C          7.07760       -2.80217       -0.60347
O          7.64295       -2.82769        0.69888
C          8.19022       -2.81092       -1.63905
C          9.14461       -2.81842       -2.52737
C         10.25723       -2.82717       -3.56294
O         10.20091       -2.04462       -4.56276
O         11.35956       -3.70970       -3.41328
O         12.32577       -3.71730       -4.31260
C         13.42811       -4.59983       -4.16293
O         13.48442       -5.38239       -3.16312
C         14.54072       -4.60858       -5.19851
C         15.49512       -4.61608       -6.08683
C         16.60773       -4.62483       -7.12240
O         16.80545       -5.65915       -7.83393
O         17.42622       -3.47734       -7.29484
O         18.39243       -3.48493       -8.19416
C         19.06418       -2.23398       -8.17776
C         19.65738       -1.99547       -6.79876
C         20.16623       -1.79087       -5.61586
C         20.75943       -1.55236       -4.23687
O         20.00517       -1.54030       -3.21407
O         20.10359       -2.24215       -9.14520
O         20.72803       -1.07929       -9.12995
C         21.81298       -0.84434      -10.01543
O         22.18281       -1.75366      -10.82261
C         22.53203        0.49471       -9.99787
C         23.14883        1.64335       -9.98281
C         23.86788        2.98241       -9.96525
O         23.46711        3.90881       -9.19301
O         24.98741        3.19828      -10.81169
C          8.61449        1.11938        4.44685
C          9.13360        1.09595        5.64269
C          9.73875        1.06864        7.03676
O         10.83755        1.66533        7.26432
O          9.07639        0.37642        8.08486
O          9.60192        0.35270        9.29550
C          8.76154       -0.39551       10.16173
O          8.63949       -1.72301        9.67261
O          8.11396       -1.69929        8.46197
C          7.89227       -2.91373        7.76027
O          8.19984       -4.02350        8.29786
C          7.28711       -2.88641        6.36620
C          6.76801       -2.86297        5.17036
C          6.16285       -2.83565        3.77629
O          7.22294        2.94905        1.10257
O          7.20226       -2.84382        2.80884
C          9.36670       -0.42282       11.55580
C          9.88580       -0.44625       12.75164
C         10.49096       -0.47356       14.14571
O         11.65799       -0.00982       14.34105
O          9.75235       -1.01723       15.22982
O         10.27788       -1.04095       16.44046
C          9.53928       -1.58462       17.52457
O          8.37224       -2.04836       17.32923
C         10.14443       -1.61193       18.91864
C         10.66354       -1.63536       20.11448
C          4.67369        1.10902       -3.93295
O          3.60536        1.37730       -4.56689
O          5.13497       -0.23167       -3.85430
O          8.24764        2.99947       -1.39339
O          4.85649       -1.63594        2.41156
