20

O          1.23395       -0.06361        0.08574
C          2.50090       -0.03519        0.01801
O          3.19853        0.33862       -0.97404
C          3.26634       -0.49940        1.26782
C          3.86188       -0.87491        2.25425
C          4.58308       -1.35209        3.42027
C          5.37077       -0.49752        4.20170
C          6.08446       -0.97966        5.32931
C          6.13425       -2.34833        5.62338
C          5.33547       -3.18948        4.84308
C          4.52434       -2.69517        3.80033
F          5.33253       -4.51367        5.06501
C          6.99789       -2.86383        6.66792
C          7.74457       -3.30503        7.51737
C          8.69266       -3.87000        8.58407
O          8.29263       -4.89437        9.21719
O          9.79294       -3.25817        8.74645
H          5.44262        0.55638        3.94016
H          6.61093       -0.27333        5.96763
H          3.85939       -3.38184        3.28596
