50

O          0.98163        0.06848       -0.07052
C          2.40163        0.06848       -0.07052
O          3.03708       -0.79221        0.61548
C          3.16163        1.09787       -0.89098
C          4.60183        1.09787       -0.89098
C          5.32193        2.07322       -1.66836
C          6.76213        2.07322       -1.66836
C          7.48223        1.09787       -0.89098
C          2.44153        2.07322       -1.66836
N          7.49713        3.06875       -2.46183
C          8.96713        3.06875       -2.46183
O          9.60258        2.20806       -1.77583
C          9.72713        4.09814       -3.28229
C         11.16733        4.09814       -3.28229
C         11.88743        5.07349       -4.05968
C         13.32763        5.07349       -4.05968
C         14.04773        6.04884       -4.83706
C         15.48793        2.14745       -1.72752
C         16.20803        3.12279       -2.50491
C          6.76213        4.06428       -3.25530
O          5.49123        4.06428       -3.25530
C         15.48793        4.09814       -3.28229
C         16.20803        5.07349       -4.05968
C         15.48793        6.04884       -4.83706
C         16.24793        7.07823       -5.65752
O         15.61248        7.93892       -6.34352
N         17.71793        7.07823       -5.65752
C         14.08763        4.04410       -3.23922
O         13.45218        3.18341       -2.55322
C         18.45293        8.07376       -6.45099
C         19.89313        8.07376       -6.45099
C         20.61323        9.04911       -7.22838
C         22.05343        9.04911       -7.22838
C         22.77353        8.07376       -6.45099
C         17.73283        9.04911       -7.22838
C         22.81343       10.07850       -8.04884
O         22.17798       10.93919       -8.73484
O         24.23343       10.07850       -8.04884
H          5.11783        0.39897       -0.33393
H          4.80593        2.77212       -2.22541
H          8.30698        0.61277       -0.50434
H          1.61679        2.55833       -2.05501
H         11.68333        3.39924       -2.72524
H         11.37143        5.77239       -4.61673
H         14.45593        4.09814       -3.28229
H         17.24003        5.07349       -4.05968
H         20.40913        7.37486       -5.89394
H         20.09723        9.74801       -7.78543
H         23.59828        7.58866       -6.06435
H         16.90809        9.53421       -7.61502
