16

O          0.92221        0.06011        0.01830
C          2.34221        0.06011        0.01830
O          2.97766       -1.03141       -0.12300
C          3.10221        1.36558        0.18729
C          4.54241        1.36558        0.18729
C          5.26251        2.60251        0.34741
C          6.70271        2.60251        0.34741
C          7.42281        1.36558        0.18729
C          2.38211        2.60251        0.34741
C          7.46271        3.90797        0.51641
O          6.82726        4.99950        0.65771
O          8.88271        3.90797        0.51641
H          5.05841        0.47923        0.07255
H          4.74651        3.48885        0.46215
H          8.24755        0.75037        0.10765
H          1.55736        3.21771        0.42705
