15

N          1.00767        0.09699       -0.02311
C          2.26864        0.09699       -0.02311
C          3.78864        0.09699       -0.02311
C          4.38718        0.09679        1.19026
C          3.73258        0.09656        2.57531
O          2.47927        0.09655        2.63581
O          4.56256        0.09640        3.53292
C          4.53897        0.09720       -1.28191
C          5.88223        0.09722       -1.39968
C          6.65741        0.09744       -2.71535
O          5.97374        0.09761       -3.77565
O          7.91622        0.09741       -2.57374
H          5.47032        0.09678        1.27404
H          3.94854        0.09735       -2.19673
H          6.53317        0.09707       -0.52940
