22

C          0.89421       -0.26278       -0.09238
C          2.41606       -0.15511       -0.09997
C          2.90235        0.61945       -1.30113
C          3.65468       -0.06040       -2.29732
C          4.18025        0.61216       -3.41505
C          3.81384        1.94995       -3.59032
C          3.06505        2.62862       -2.62156
C          2.62838        2.00396       -1.43840
C          1.89518        2.86777       -0.39732
O          1.49477        4.01767       -0.77460
O          1.72621        2.42096        0.78645
C          5.17094       -0.04720       -4.36194
O          5.49873       -1.25521       -4.13489
O          5.63762        0.66619       -5.31475
H          0.54782       -0.69673        0.84875
H          0.55101       -0.88246       -0.92527
H          0.38736        0.69947       -0.21105
H          2.84245       -1.16599       -0.08463
H          2.80418        0.31823        0.80959
H          3.86443       -1.12557       -2.19824
H          4.14878        2.48276       -4.47699
H          2.84355        3.68280       -2.77049
