64

O          1.02947       -0.05114        0.08073
C          2.44947       -0.05114        0.08073
O          3.08492       -0.91384       -0.60275
C          3.20947        0.98066        0.89816
C          4.64967        0.98066        0.89816
C          5.36977        1.95828        1.67268
C          6.80997        1.95828        1.67268
C          7.53007        0.98066        0.89816
C          2.48937        1.95828        1.67268
N          7.54497        2.95613        2.46323
C          9.01497        2.95613        2.46323
O          9.65042        2.09343        1.77976
C          9.77497        3.98792        3.28067
C         11.21517        3.98792        3.28067
C         11.93527        4.96555        4.05519
C         13.37547        4.96555        4.05519
C         14.09557        5.94317        4.82971
C         15.53577        2.03268        1.73163
C         16.25587        3.01030        2.50615
C          6.80997        3.95398        3.25378
O          5.53907        3.95398        3.25378
C         15.53577        3.98792        3.28067
C         16.25587        4.96555        4.05519
C         15.53577        5.94317        4.82971
C         16.25587        6.92080        5.60423
C         17.69607        6.92080        5.60423
C         14.09557        9.85367        7.92780
C         15.53577        9.85367        7.92780
C         16.25587        8.87604        7.15328
C         17.69607        8.87604        7.15328
C         18.41617        7.89842        6.37875
C         19.85637        7.89842        6.37875
C         20.57647        6.92080        5.60423
C         15.53577        7.89842        6.37875
C         20.61637        8.93021        7.19619
O         19.98092        9.79291        7.87967
N         22.08637        8.93021        7.19619
C         22.82137        7.93236        6.40564
O         22.18592        7.06966        5.72217
C         22.82137        9.92807        7.98674
C         24.26157        9.92807        7.98674
C         24.98167       10.90569        8.76126
C         26.42187       10.90569        8.76126
C         27.14197        9.92807        7.98674
C         22.10127       10.90569        8.76126
C         27.18187       11.93748        9.57870
O         26.54642       12.80018       10.26217
O         28.60187       11.93748        9.57870
H          5.16567        0.28012        0.34317
H          4.85377        2.65881        2.22768
H          8.35481        0.49442        0.51294
H          1.66462        2.44452        2.05790
H         11.73117        3.28739        2.72567
H         11.41927        5.66608        4.61019
H         14.50377        3.98792        3.28067
H         17.28787        4.96555        4.05519
H         16.05177       10.55420        8.48279
H         15.73987        8.17551        6.59828
H         21.40121        6.43456        5.21901
H         14.71102        8.38466        6.76397
H         24.77757        9.22753        7.43174
H         24.46567       11.60622        9.31626
H         27.96671        9.44183        7.60152
H         21.27652       11.39193        9.14648
