14

F          0.95572       -0.04221       -0.08830
C          2.30900       -0.03622       -0.05192
C          2.92091        0.09669        1.14399
C          4.44091        0.09669        1.14399
C          5.74476        0.09669        1.14399
C          7.26287        0.07969        1.15788
O          7.83591        1.20977        1.20515
O          7.80980       -1.06375        1.19352
F          2.23945        0.22571        2.30000
C          2.99939       -0.17339       -1.31382
C          3.59652       -0.28760       -2.36237
C          4.35997       -0.43564       -3.68673
O          3.92649       -1.32233       -4.48687
O          5.32388        0.36154       -3.89159
