22

O          1.13160       -0.09364        0.00754
C          2.39809       -0.00610       -0.02458
O          3.07592        1.02955       -0.30829
C          3.19654       -1.26741        0.32048
C          3.81578       -2.27524        0.59059
C          4.48534       -3.51325        0.94102
C          5.64703       -3.51388        1.72222
C          6.16470       -4.71712        2.26048
C          5.71451       -5.96490        1.81167
C          4.61952       -5.96514        0.93488
C          3.96741       -4.75998        0.57775
O          2.79643       -4.81654       -0.13824
O          4.12596       -7.12695        0.38383
C          6.40311       -7.17760        2.21301
C          6.99103       -8.20126        2.49752
C          7.73144       -9.50065        2.84002
O          8.35942      -10.05962        1.89049
O          7.63645       -9.90571        4.03738
H          6.16258       -2.57823        1.92740
H          6.92167       -4.66140        3.04035
H          2.58142       -5.76137       -0.21830
H          4.74878       -7.84192        0.62435
