28

O          1.05440        0.05794       -0.08712
C          2.32576        0.08045       -0.00931
O          3.02231        0.97536        0.56113
C          3.06710       -1.05241       -0.67374
C          2.62308       -1.55723       -1.89423
C          3.29840       -2.60724       -2.50674
C          4.41481       -3.19750       -1.89756
C          4.92053       -2.71815       -0.66666
C          4.21204       -1.62525       -0.08567
C          6.07964       -3.36372       -0.08693
C          6.67434       -2.88716        1.10289
C          7.76462       -3.51493        1.69261
C          8.29277       -4.65649        1.11003
C          7.77414       -5.18949       -0.08997
C          6.66430       -4.51776       -0.70640
C          6.09473       -4.93177       -1.92432
C          5.01614       -4.28385       -2.51723
C          8.45435       -6.46314       -0.62503
O          8.03888       -7.00990       -1.69471
O          9.43185       -6.92179        0.05821
H          1.74305       -1.12120       -2.35961
H          2.93360       -2.97295       -3.46212
H          4.51941       -1.20537        0.86927
H          6.29785       -1.99474        1.59478
H          8.19494       -3.11707        2.60574
H          9.13464       -5.15232        1.59173
H          6.48325       -5.78879       -2.46386
H          4.64858       -4.67166       -3.46301
