14

F          1.05391        0.02691       -0.00455
C          2.40311        0.06524        0.01999
C          3.08331        1.04476        0.67462
C          2.32331        2.13920        1.40606
C          1.67138        3.07801        2.03349
C          0.92620        4.16963        2.77820
O         -0.06365        4.68628        2.17959
O          1.37235        4.46521        3.92752
C          3.16311       -1.02920       -0.71145
C          3.81503       -1.96801       -1.33887
C          4.56979       -3.06875       -2.05455
O          5.02931       -2.77967       -3.19885
O          4.67140       -4.16988       -1.43600
H          4.16500        1.08178        0.69941
