16

O          1.08693       -0.12351        0.08610
C          2.35827       -0.04295        0.01987
O          3.02471        0.23185       -1.02797
C          3.13998       -0.31942        1.28221
C          4.30557        0.40013        1.58547
C          5.08614        0.06604        2.70206
C          4.68778       -0.94682        3.59060
C          3.51466       -1.65774        3.28699
C          2.74957       -1.34504        2.15438
C          5.47536       -1.23323        4.85749
O          6.52026       -0.53640        5.07453
O          5.03265       -2.14167        5.63582
H          4.60294        1.22585        0.94397
H          6.01746        0.59688        2.88642
H          3.19885       -2.46639        3.94204
H          1.84501       -1.90714        1.93617
