8

N          0.94948        0.00374        0.00554
C          2.23694       -0.04557       -0.01169
C          3.02553        1.15528        0.40805
N          4.31677        1.17200        0.41389
H          0.55501       -0.89089       -0.30716
H          2.80993       -0.93296       -0.32187
H          2.43210        2.03046        0.71395
H          4.72042        0.28433        0.10362
