24

O          1.12376       -0.13743        0.24577
C          2.38983       -0.09901        0.16603
O          3.07534        0.36501       -0.79529
C          3.17953       -0.67815        1.36682
C          3.79419       -1.12861        2.30898
C          4.49607       -1.66071        3.44734
C          4.15841       -3.01260        4.09388
C          5.65968       -3.35083        4.22118
C          6.00421       -1.99396        3.54725
C          6.08907       -1.32935        4.95472
C          4.52457       -0.98194        4.81870
C          4.16537       -2.38791        5.50582
C          5.72310       -2.73697        5.61948
C          6.35915       -3.30194        6.77185
C          6.89291       -3.76727        7.75740
C          7.57155       -4.35520        9.01306
O          6.80374       -4.72543        9.95252
O          8.83812       -4.42331        8.99190
Cl         2.94849       -2.60947        6.69786
Cl         7.28742       -0.21816        5.50307
Cl         7.18441       -1.81964        2.29597
H          3.41232       -3.71020        3.73067
H          6.08992       -4.30459        3.93664
H          4.08341       -0.02993        5.08428
