16

O          1.12329        0.14080       -0.00831
C          2.39350        0.08925       -0.08397
O          3.05747       -0.75970       -0.75499
C          3.15213        1.07490        0.74599
C          2.71930        1.38109        2.04210
C          3.43279        2.26985        2.85585
F          2.93959        2.47250        4.08703
C          4.60082        2.90341        2.41500
C          5.01283        2.60454        1.10726
C          4.30307        1.70887        0.28858
F          4.75018        1.50298       -0.96140
F          6.11214        3.16627        0.57664
C          5.36860        3.84827        3.29740
O          6.42240        4.39000        2.83309
O          4.93214        4.06557        4.47401
H          1.81955        0.91130        2.43213
