14

O          1.16603       -0.12122       -0.04315
C          2.43110       -0.21923        0.01308
O          3.13727       -1.12219        0.53117
C          3.15892        0.93712       -0.65038
C          4.47881        1.13602       -0.76451
C          5.19714        2.25610       -1.40717
C          4.71629        3.35773       -2.03924
C          5.54247        4.52964       -2.71164
O          4.85658        5.45873       -3.24472
O          6.80361        4.46638       -2.67534
Cl         2.98278        3.66159       -2.21359
Cl         6.94181        1.99824       -1.25922
H          2.43827        1.63158       -1.04884
H          5.11508        0.36442       -0.32179
