28

O          1.06188        0.07187        0.04504
C          2.33420        0.00902        0.00700
O          3.04508       -0.97446        0.37509
C          3.06260        1.23678       -0.49215
C          4.19976        1.14963       -1.30597
C          4.90002        2.31305       -1.68238
C          4.45779        3.59651       -1.31243
C          3.31357        3.66652       -0.50392
C          2.62882        2.50905       -0.10293
N          5.16490        4.72848       -1.81553
N          4.69410        5.83297       -1.44924
C          5.28584        6.94332       -2.11016
C          5.52075        8.12809       -1.39590
C          6.01792        9.28125       -2.03135
C          6.36026        9.26576       -3.39165
C          6.09254        8.09348       -4.11377
C          5.55342        6.95789       -3.48612
C          7.04206       10.45673       -4.04914
O          7.26288       11.47726       -3.32328
O          7.36423       10.33899       -5.27576
H          4.53403        0.17032       -1.64595
H          5.80818        2.20928       -2.27051
H          2.93507        4.62611       -0.16876
H          1.74609        2.58511        0.52920
H          5.32766        8.16325       -0.32769
H          6.15729       10.20221       -1.46581
H          6.31590        8.06863       -5.17935
H          5.34849        6.07590       -4.08446
