29

O          1.16978       -0.09028        0.03413
C          2.43570       -0.02439       -0.03172
O          3.11736        0.62615       -0.88158
C          3.22564       -0.81409        1.02106
C          3.83488       -1.45320        1.84882
C          4.50996       -2.27041        2.84844
C          5.33327       -1.67085        3.80953
C          5.94530       -2.42603        4.84328
C          6.80164       -1.73421        5.86729
C          5.74364       -3.81696        4.93138
C          4.93945       -4.44290        3.95310
C          4.32928       -3.67066        2.90612
C          3.48025       -4.32814        1.84373
C          4.70506       -5.93145        4.01919
C          6.34991       -4.57220        6.01938
C          6.85019       -5.19983        6.92670
C          7.48217       -6.00191        8.06495
O          8.62147       -6.50960        7.83329
O          6.81215       -6.09012        9.13859
H          5.49648       -0.59557        3.76645
H          6.87015       -0.66064        5.67463
H          7.81640       -2.14599        5.84644
H          6.37204       -1.87047        6.86562
H          3.38512       -5.40650        1.97973
H          3.92819       -4.17242        0.85636
H          2.46663       -3.91609        1.86145
H          5.20251       -6.41403        4.86250
H          5.08873       -6.40839        3.11231
H          3.63476       -6.13066        4.13129
