10

O          0.96067       -0.36177       -0.39854
C          2.13986        0.01619       -0.09621
O          2.45642        0.96185        0.66020
C          3.21335       -0.82972       -0.77284
C          4.55558       -0.83316       -0.77558
C          5.63080        0.07367       -0.05023
O          6.83366       -0.26413       -0.32043
O          5.26998        1.01243        0.70066
F          5.08652       -1.81907       -1.56419
H          2.74992       -1.60216       -1.39069
