20

O          1.24776        0.20641       -0.09791
C          2.51330        0.13549       -0.02937
O          3.18920       -0.57150        0.77907
C          3.31527        0.99441       -1.02275
C          3.93837        1.67392       -1.80839
C          4.60667        2.51627       -2.78571
C          4.46231        3.90640       -2.74455
C          4.99352        4.73222       -3.76463
C          5.57662        4.18125       -4.91470
C          5.76514        2.79017       -4.92588
C          5.35196        1.97801       -3.84000
Br         6.51256        1.90689       -6.43997
C          5.91501        5.03043       -6.04279
C          6.17656        5.70362       -7.01876
C          6.51404        6.54669       -8.25360
O          6.88750        7.73897       -8.03168
O          6.39373        5.98534       -9.38534
H          3.91076        4.36055       -1.92377
H          4.91292        5.81235       -3.66349
H          5.58818        0.91691       -3.84204
