18

C          1.11318        0.29183        0.02935
O          2.53445        0.12761        0.04578
C          3.08294       -1.15247        0.14833
C          2.40274       -2.32677        0.24335
C          0.88274       -2.32677        0.24335
C         -0.42112       -2.32677        0.24335
C         -1.93645       -2.33585        0.25196
O         -2.50205       -1.43484       -0.42883
O         -2.48635       -3.24585        0.94735
C          4.60294       -1.15247        0.14833
C          5.90679       -1.15247        0.14833
C          7.42173       -1.14261        0.13746
O          7.99377       -1.91552        0.96049
O          7.97318       -0.36333       -0.69924
H          0.84146        1.34507       -0.05565
H          0.67532       -0.04620        0.97766
H          0.67759       -0.19495       -0.85282
H          2.90664       -3.28227        0.32162
