27

N          1.25811       -0.07525       -0.01292
C          2.41848       -0.06730       -0.05724
C          3.83696       -0.04948       -0.07455
C          4.71550       -1.08642        0.64682
C          5.60807       -1.17537       -0.61748
C          4.71369       -0.13152       -1.32639
C          5.60650        0.98509       -0.79768
C          4.68464        1.09302        0.50289
C          5.60811        0.01371        1.23290
C          6.51093       -0.07017       -0.05739
C          7.92453       -0.07768       -0.05457
N          9.08696       -0.08655       -0.07003
C          6.06365        0.10263        2.59113
C          6.46042        0.17277        3.73362
C          6.97295        0.26515        5.19698
O          7.52952        1.35386        5.53322
O          6.78254       -0.75338        5.92874
C          6.08613        2.10013       -1.51919
N          6.49607        3.02666       -2.09075
C          4.23305       -0.24719       -2.68033
C          3.82018       -0.32047       -3.81712
C          3.29188       -0.41305       -5.27615
O          3.31052       -1.56436       -5.80820
O          2.89223        0.66711       -5.80663
H          4.34993       -1.94962        1.19119
H          5.95468       -2.10835       -1.04640
H          4.32032        2.01171        0.94512
