23

O          1.23337       -0.04978        0.10223
C          2.50050       -0.05028        0.02379
O          3.19228        0.05459       -1.03557
C          3.27547       -0.16900        1.34334
C          3.88792       -0.27138        2.38148
C          4.61964       -0.39447        3.63182
C          5.06824        0.75564        4.30155
C          5.76891        0.66026        5.52480
O          6.19124        1.80532        6.15522
C          6.04714       -0.57940        6.12467
C          5.60191       -1.72990        5.44825
C          4.90028       -1.63629        4.21908
O          4.48496       -2.78699        3.58958
O          5.82226       -2.99860        5.94436
C          6.76145       -0.64432        7.38735
C          7.35600       -0.68191        8.44227
C          8.10176       -0.72162        9.77710
O          9.15503       -0.02134        9.86617
O          7.60415       -1.47232       10.67037
H          4.86412        1.72836        3.86285
H          5.94489        2.58290        5.63368
H          4.77264       -3.52638        4.15354
H          6.29797       -2.89621        6.79406
