27

C          1.02035        0.01434        0.09376
C          2.54177        0.02301        0.07123
O          2.98124        1.27877       -0.45715
C          4.34851        1.45088       -0.45254
C          5.22069        0.44912       -0.95093
C          6.61241        0.57649       -0.84998
C          7.49869       -0.52788       -1.16511
C          8.24325       -1.46043       -1.38582
C          9.18382       -2.64212       -1.66414
O          9.65282       -2.72506       -2.84025
O          9.40901       -3.43457       -0.69867
C          7.11798        1.80036       -0.40524
C          6.25197        2.86138       -0.05134
C          4.85962        2.68287       -0.00291
C          4.01313        3.72999        0.54944
C          3.31033        4.58360        1.04772
C          2.40730        5.65165        1.68255
O          1.33469        5.93179        1.06419
O          2.81093        6.16840        2.77009
H          0.63937       -0.94548        0.45698
H          0.61964        0.19070       -0.91012
H          0.63300        0.81037        0.73785
H          2.87423       -0.80342       -0.56432
H          2.92019       -0.12395        1.09064
H          4.81639       -0.43549       -1.43273
H          8.19398        1.93961       -0.32490
H          6.68177        3.82678        0.20724
