20

C          1.00944        0.00316        0.02500
C          2.51329        0.08502       -0.05222
C          3.19349        0.94081       -0.86193
C          4.71349        0.94081       -0.86193
C          6.01734        0.94081       -0.86193
C          7.53631        0.98017       -0.90759
O          8.16830        0.26350       -0.08273
O          8.03714        1.74878       -1.79024
C          2.53907        1.92776       -1.79574
C          3.27329       -0.87118        0.85248
C          3.92521       -1.69141        1.62853
C          4.63992       -2.67465        2.54101
O          5.62467       -2.24255        3.20570
O          4.13281       -3.84039        2.59651
H          0.48537        0.69836       -0.63273
H          0.66543        0.22898        1.03899
H          0.66549       -0.99681       -0.25652
H          1.44821        1.90985       -1.77878
H          2.82856        1.72479       -2.83135
H          2.82856        2.95056       -1.53580
