14

O          0.97875       -0.21780       -0.36745
C          2.16394       -0.05254        0.05072
O          2.51938        0.38947        1.16919
C          3.21880       -0.45828       -0.97597
C          4.56004       -0.45069       -0.95677
C          5.44129       -0.02698        0.11541
C          6.78289       -0.03368        0.09844
C          7.60135        0.45065        1.32403
O          8.86229        0.38846        1.16665
O          6.99266        0.85695        2.35214
F          7.44154       -0.47068       -1.00734
F          4.84724        0.41554        1.23518
F          5.16341       -0.89888       -2.09089
H          2.75070       -0.82020       -1.89178
