28

O          1.04920        0.07013        0.18689
C          2.31496        0.03998        0.08319
O          2.99475       -0.80008       -0.58666
C          3.08710        1.11886        0.80216
C          4.12396        1.78505        0.13529
C          4.82475        2.82032        0.75620
C          4.52460        3.18420        2.06975
C          3.51365        2.50988        2.76006
C          2.78643        1.49300        2.12235
C          5.26322        4.25087        2.68129
C          5.92364        5.13875        3.14817
C          6.74877        6.16943        3.70840
C          6.59779        6.52707        5.04813
C          7.43187        7.49729        5.61587
C          8.43016        8.13032        4.85636
C          8.56112        7.76594        3.50576
C          7.72643        6.79722        2.93384
C          9.34155        9.17589        5.47583
O          9.16048        9.45173        6.70478
O         10.22123        9.70227        4.72186
H          4.36368        1.49466       -0.88508
H          5.60039        3.34101        0.20350
H          3.27727        2.77324        3.78724
H          1.98064        0.98320        2.64707
H          5.83966        6.05036        5.66217
H          7.31402        7.76466        6.66451
H          9.33110        8.24482        2.90264
H          7.85683        6.53733        1.88742
