9

O          1.20198       -0.06096       -0.06272
C          2.47408       -0.01749       -0.13709
O          3.17208        0.51172       -1.04249
C          3.14771       -0.69050        1.01433
C          4.38807       -0.89657        1.36689
C          5.46408       -1.43452        2.28724
O          5.00625       -2.03179        3.30908
O          6.68932       -1.26296        1.99373
H          2.45163       -1.11019        1.73236
