14

O          1.16879       -0.19202       -0.13892
C          2.42699       -0.07532       -0.03312
O          3.09000        0.72073        0.68856
C          3.21836       -1.04739       -0.91438
C          4.55990       -1.09054       -0.95349
C          5.30979       -2.01098       -1.78794
C          6.65158       -2.05496       -1.82781
C          7.44263       -3.02713       -2.70917
O          6.77939       -3.82306       -3.43074
O          8.70086       -2.91061       -2.60353
H          2.62484       -1.72080       -1.52488
H          5.12528       -0.40161       -0.32893
H          4.74418       -2.69983       -2.41244
H          7.24543       -1.38169       -1.21745
