17

O          1.08682       -0.05850        0.23990
C          2.34472        0.03104        0.09346
O          2.98422        0.59741       -0.83281
C          3.14012       -0.65512        1.21566
C          4.48153       -0.65947        1.22278
C          5.32858       -1.27367        2.22728
C          6.68046       -1.28605        2.24753
C          7.66228       -0.63999        1.19092
O          8.89168       -0.80092        1.45411
O          7.16635       -0.03573        0.20267
C          7.41453       -1.97622        3.37627
H          2.56691       -1.13419        1.99917
H          4.97588       -0.15473        0.39728
H          4.79150       -1.76771        3.03526
H          6.73916       -2.42587        4.11167
H          8.05044       -1.26438        3.91556
H          8.05044       -2.78066        2.98844
