38

C          0.89401        0.03390        0.02968
C          2.41226        0.06355        0.06251
C          2.90492        1.08095       -0.93550
C          2.59469        2.44513       -0.70972
C          2.87067        3.43732       -1.64871
C          2.45582        4.80056       -1.35438
C          2.11246        5.94229       -1.12404
C          1.69629        7.38833       -0.84595
O          2.52800        8.10278       -0.20744
O          0.55964        7.74759       -1.28072
C          3.51682        3.06474       -2.85736
C          3.87660        1.66300       -3.08011
C          3.56736        0.67364       -2.10129
C          3.88654       -0.74865       -2.25307
C          4.18876       -1.90282       -2.46633
C          4.63090       -3.30622       -2.90986
O          5.46378       -3.37216       -3.86743
O          4.11568       -4.28042       -2.28411
C          4.56724        1.26446       -4.37235
C          4.96478       -0.15025       -4.67907
C          3.77172        4.22688       -3.82979
C          4.46110        3.95873       -5.14953
H          0.51762       -0.71659        0.72591
H          0.52853       -0.20449       -0.97697
H          0.47327        1.00472        0.30979
H          2.77910       -0.94510       -0.14951
H          2.79774        0.31971        1.05324
H          2.08778        2.72644        0.21180
H          5.51761        1.79582       -4.40937
H          3.89117        1.50743       -5.19199
H          5.68954       -0.47684       -3.92905
H          5.45223       -0.23285       -5.64932
H          4.06152       -0.76449       -4.72364
H          4.37897        4.97838       -3.30676
H          2.80508        4.69122       -4.06985
H          5.46464        3.57162       -4.96987
H          4.60018        4.84760       -5.76150
H          3.85394        3.28376       -5.75398
