17

O          1.01541        0.13482       -0.09336
C          2.28244        0.00940       -0.03317
O          2.91574       -0.64248        0.85742
C          3.10018        0.69980       -1.09796
C          2.74370        1.96644       -1.58518
C          3.54288        2.62147       -2.53544
C          4.71417        2.02551       -3.03774
C          5.05184        0.75114       -2.55293
C          4.26086        0.09613       -1.60543
O          6.18306        0.09491       -2.97729
C          5.57176        2.73940       -4.05817
O          5.21127        3.89023       -4.46077
O          6.62044        2.11520       -4.44648
H          1.84619        2.44863       -1.20414
H          3.25885        3.61196       -2.88465
H          4.54601       -0.88927       -1.24854
H          6.61337        0.72163       -3.61765
