14

C          1.10398        0.28173        0.11899
O          2.50154        0.14265        0.00549
C          2.96593       -0.87223       -0.82264
C          2.23043       -1.75854       -1.54586
C          0.75169       -2.13700       -1.85469
O         -0.18954       -1.48222       -1.32039
O          0.61705       -3.11290       -2.65102
C          4.58215       -0.92879       -0.86879
O          5.18197       -0.05802       -0.15825
O          5.10960       -1.82269       -1.59821
H          0.86712        1.10740        0.79273
H          0.68291       -0.61695        0.57885
H          0.68291        0.55198       -0.85367
H          2.84311       -2.46451       -2.12193
