14

O          1.04855       -0.11403        0.10441
C          2.30588       -0.07355       -0.05955
O          2.95079        0.18589       -1.11056
C          3.09883       -0.38888        1.21784
C          4.43912       -0.38831        1.21555
C          5.29594       -0.66743        2.34624
C          6.64169       -0.66729        2.34566
C          7.62969       -0.37249        1.15142
O          8.85766       -0.44885        1.46077
O          7.14210       -0.09327        0.02030
F          7.22058       -0.96351        3.54566
H          2.52921       -0.60953        2.11170
H          4.92988       -0.15584        0.27377
H          4.79997       -0.89944        3.28610
