23

C          0.81848        0.09738       -0.16873
C          2.31416        0.11583       -0.20597
C          2.99844        0.74189       -1.41694
C          4.52717        0.71050       -1.35599
C          5.23615        0.16561       -0.31025
C          4.71961       -0.47353        0.90885
C          4.13611       -0.97026        1.86236
C          3.20885       -1.53712        2.97592
O          3.75526       -1.80804        4.08924
O          1.97609       -1.68102        2.69459
C          5.28717        1.31540       -2.52513
C          5.93910        1.83428       -3.52802
C          6.68225        2.43808       -4.70540
O          7.91320        2.68233       -4.52850
O          5.99976        2.64148       -5.75423
H          0.50423       -0.38499        0.76568
H          0.43220       -0.48349       -1.00497
H          0.43246        1.11548       -0.17910
H          2.61443       -0.93786       -0.15239
H          2.61702        0.67739        0.68660
H          2.66809        1.78318       -1.50029
H          2.66798        0.20831       -2.31498
H          6.32088        0.18767       -0.34705
