17

N         -3.10327        0.22660        0.05428
C         -1.95328        0.07287       -0.01203
C         -0.51140       -0.01252       -0.04996
C          0.22195        1.19826       -0.03913
C          1.62925        1.22203        0.01173
C          2.29424       -0.00862        0.05907
C          1.57847       -1.21405        0.01637
C          0.16807       -1.24432       -0.05281
C         -0.54617       -2.58314       -0.12973
O          0.17564       -3.63170       -0.10257
O         -1.81102       -2.59060       -0.22896
C          2.39506        2.53483        0.02317
O          1.71258        3.60861       -0.02886
O          3.66609        2.47739        0.08223
H         -0.30460        2.15312       -0.06085
H          3.38111       -0.02777        0.12479
H          2.12603       -2.15543        0.04003
