15

O          1.08521        0.23035       -0.07455
C          2.34301        0.05958       -0.08722
O          2.98434       -1.02161       -0.16741
C          3.13822        1.37426        0.01028
C          4.47991        1.38608        0.01116
C          5.33635        2.55634        0.09795
C          6.68791        2.56909        0.09890
C          7.67007        1.29253        0.00422
O          8.90649        1.57304        0.02503
O          7.14404        0.14730       -0.08071
O          7.36323        3.80488        0.19055
H          2.55824        2.28577        0.07789
H          4.97120        0.41965       -0.06051
H          4.79963        3.49973        0.16792
H          6.70904        4.51158        0.24297
