29

O          1.25315        0.20406        0.01199
C          2.51980        0.12386        0.02447
O          3.21137       -0.92398        0.21068
C          3.29734        1.42661       -0.21056
C          3.91547        2.45035       -0.39666
C          4.64889        3.68929       -0.61995
C          3.99087        4.90960       -0.42879
C          4.64114        6.15132       -0.63479
C          3.87971        7.42901       -0.42203
C          5.98827        6.19695       -1.03895
C          6.67322        4.97668       -1.23527
C          6.00283        3.71979       -1.02739
C          6.72638        2.41150       -1.24101
C          8.11959        4.99957       -1.66815
C          6.64151        7.48170       -1.24624
C          7.18719        8.54916       -1.41927
C          7.88284        9.89265       -1.63806
O          7.36160       10.89870       -1.06753
O          8.91940        9.88164       -2.36971
H          2.94832        4.89844       -0.11492
H          2.84963        7.23323       -0.11279
H          3.84778        8.00283       -1.35409
H          4.35992        8.02376        0.36179
H          7.76315        2.54566       -1.55623
H          6.23234        1.83020       -2.02589
H          6.75237        1.83670       -0.31001
H          8.52154        6.00705       -1.79383
H          8.22596        4.49883       -2.63519
H          8.74074        4.50853       -0.91290
