20

O          0.27087       -0.17543        0.17485
C          1.57364       -0.51773        0.55012
O          3.29735        0.08799       -0.11397
C          3.28807        0.65764       -0.73851
C          4.68940        0.90394       -1.00855
C          5.39432       -0.01068       -0.00578
C          4.77168       -0.83274        0.89550
C          2.95826       -0.83787        0.90112
O          2.44096       -1.70985        1.85714
O          1.87835        0.33433       -0.38403
C          5.34132       -1.72771        1.87672
C          5.24917        1.79029       -1.98031
H          2.65045        1.45117       -1.60851
H          6.41541        0.01185       -0.03049
H          6.39679       -1.58887        1.72449
H          5.02969       -2.74598        1.66544
H          5.02969       -1.42391        2.87130
H          4.50579        2.32746       -2.56924
H          5.84657        1.15890       -2.61875
H          5.84657        2.48396       -1.41016
