13

O          1.03058        0.46165       -0.16957
C          2.20693       -0.00488        0.00133
O          2.50816       -1.14602        0.41933
C          3.30179        1.02255       -0.37502
C          4.65368        1.07100       -0.39277
C          5.70798       -0.03634        0.01285
O          6.91940        0.34023       -0.12509
O          5.31593       -1.15362        0.42211
C          5.33491        2.34593       -0.85978
H          2.78452        1.92878       -0.70698
H          4.63324        3.13573       -1.14908
H          5.96707        2.14519       -1.73299
H          5.96707        2.75672       -0.06351
