20

O          1.15550        0.02837       -0.10191
C          2.42167       -0.02484       -0.02704
O          3.10216       -0.65411        0.84002
C          3.21623        0.75187       -1.08938
C          3.83248        1.37151       -1.92942
C          4.49278        2.14005       -2.96963
C          4.43577        3.53726       -2.96984
C          4.83917        4.28379       -4.10136
C          5.43305        3.66429       -5.20501
C          5.66361        2.28656       -5.12116
C          5.14655        1.52441       -4.04329
C          5.75359        4.41994       -6.39982
C          5.97813        5.05464       -7.40997
C          6.26915        5.85199       -8.68850
O          7.46620        5.82233       -9.10892
O          5.29457        6.47234       -9.21423
H          4.04506        4.05999       -2.10067
H          4.66119        5.35608       -4.12001
H          6.22241        1.78652       -5.90864
H          5.24202        0.44139       -4.06662
