14

O          1.13711        0.00787       -0.04459
C          2.40242        0.12230       -0.04491
O          3.10750        1.16368       -0.04785
C          3.13003       -1.21111       -0.04115
C          4.44551       -1.45873       -0.04046
C          5.16355       -2.75718       -0.03680
C          4.66292       -4.02695       -0.03322
C          5.49528       -5.38995       -0.02938
O          4.81621       -6.46478       -0.02635
O          6.75588       -5.31762       -0.02958
Br         2.78982       -4.44882       -0.03203
Br         7.05423       -2.41611       -0.03776
H          2.39996       -1.99955       -0.03893
H          5.08256       -0.56906       -0.04296
