20

O          1.13775        0.10277       -0.18604
C          2.40756        0.20798       -0.27328
O          3.08846        1.01685       -0.94396
C          3.15824       -0.81169        0.57218
C          4.46129       -1.05659        0.77524
C          5.13766       -2.08141        1.62497
C          4.57243       -3.03837        2.41843
C          5.38321       -4.10581        3.30351
O          4.65664       -4.90857        3.96911
O          6.64404       -4.06909        3.27305
C          3.09744       -3.28167        2.62017
C          6.66156       -1.99271        1.55143
H          2.36674       -1.36682        1.03247
H          5.13700       -0.39688        0.22824
H          2.41943       -2.64683        2.09379
H          2.82403       -3.13498        3.66875
H          2.82403       -4.28495        2.28183
H          7.03271       -1.20002        0.89416
H          7.08837       -2.92634        1.16285
H          7.08837       -1.78376        2.54087
