14

O          1.11411        0.10542        0.03454
C          2.37195       -0.04257       -0.04689
O          3.01648       -0.99075       -0.56857
C          3.16438        1.11091        0.58775
C          4.50516        1.11356        0.58920
C          5.35622        2.14049        1.15421
C          6.70664        2.14805        1.15837
C          7.69991        1.06074        0.56014
O          8.93573        1.30580        0.69497
O          7.19180        0.04637        0.00205
Br         7.57803        3.63324        1.97551
H          2.59148        1.91584        1.03061
H          4.99739        0.26473        0.12219
H          4.82801        2.97480        1.61324
