10

O          1.03930       -0.01886        0.09000
C          2.45930       -0.01886        0.09000
O          3.09475       -0.58645        1.03299
C          3.21930        0.65999       -1.03782
C          3.87122        1.24230       -2.00526
C          4.63122        1.92114       -3.13307
C          5.28315        2.50346       -4.10051
C          6.04315        3.18230       -5.22833
O          6.92010        2.53596       -5.88285
O          5.77332        4.53866       -5.55064
