36

O          1.12676       -0.11165       -0.00211
C          2.39536       -0.01702       -0.07257
O          3.06114        0.42165       -1.05850
C          3.18383       -0.49709        1.11837
C          4.36165        0.15670        1.49942
C          5.16177       -0.37085        2.51122
C          4.76754       -1.51506        3.22568
C          3.58078       -2.15880        2.85429
C          2.79443       -1.64928        1.81657
C          5.59274       -1.98540        4.34153
C          5.93003       -1.10065        5.37573
C          6.83402       -1.47538        6.36424
C          7.35141       -2.77771        6.40937
C          6.99535       -3.67310        5.39248
C          6.12261       -3.28177        4.37137
C          8.23039       -3.16025        7.51765
C          7.80807       -2.97607        8.84454
C          8.68053       -3.19227        9.91174
C          9.97076       -3.69253        9.69078
C         10.38223       -3.90319        8.36452
C          9.52436       -3.64184        7.29143
C         10.87644       -4.04006       10.85540
O         10.42355       -3.83264       12.02648
O         12.01607       -4.53243       10.57849
H          4.65776        1.06996        0.98848
H          6.11612        0.10433        2.72754
H          3.26054       -3.06273        3.36442
H          1.87549       -2.15384        1.52550
H          5.49587       -0.10324        5.40778
H          7.15259       -0.73724        7.09808
H          7.40294       -4.68097        5.38470
H          5.87282       -3.98844        3.58369
H          6.78942       -2.65877        9.05649
H          8.35775       -2.97576       10.92844
H         11.38955       -4.26854        8.17416
H          9.88157       -3.80148        6.27796
