23

O          1.12258        0.07951       -0.05706
C          2.38879       -0.00433       -0.00763
O          3.06521       -0.84246        0.66350
C          3.18042        1.02154       -0.83032
C          3.79470        1.83487       -1.48175
C          4.47396        2.85655       -2.26121
C          4.11819        4.20069       -2.07274
C          4.69860        5.22547       -2.84819
O          4.30373        6.52537       -2.64990
C          5.66480        4.95478       -3.82997
C          6.03832        3.60895       -4.00427
C          5.45179        2.57459       -3.22684
O          5.84809        1.27284       -3.42958
O          6.98028        3.23072       -4.93979
C          6.23198        6.03806       -4.61244
C          6.68649        6.96215       -5.25043
C          7.25321        8.12759       -6.06214
O          7.52158        7.87511       -7.27596
O          7.42000        9.22794       -5.45446
H          3.37315        4.43979       -1.31901
H          3.63177        6.56363       -1.95377
H          6.51815        1.29804       -4.13603
H          7.26588        4.04359       -5.40597
