18

N          1.04663        0.08279        0.10845
C          2.40976       -0.03671        0.07088
C          3.08996       -1.12705       -0.37542
C          4.60996       -1.12705       -0.37542
C          5.91382       -1.12705       -0.37542
C          7.43083       -1.15118       -0.37970
O          7.96638       -2.05418       -1.09041
O          8.02711       -0.29504        0.34108
N          2.51714       -2.28136       -0.83694
C          3.16976        1.18155        0.56953
C          3.82169        2.22657        0.99728
C          4.56025        3.45845        1.48594
O          4.40767        3.75087        2.71079
O          5.19171        4.12805        0.61171
H          0.48856       -0.69770       -0.19283
H          0.63716        0.92850        0.47610
H          1.51375       -2.33600       -0.87695
H          3.11141       -3.02898       -1.16326
