24

O          1.12834        0.23233        0.14530
C          2.39557        0.15675        0.11099
O          3.08213       -0.80913       -0.34499
C          3.18375        1.36147        0.68108
C          3.79881        2.30709        1.12570
C          4.50251        3.44641        1.65257
C          4.71435        3.73449        3.14793
C          6.19070        4.11113        2.88418
C          5.97315        3.80606        1.38290
C          5.61298        5.28468        1.13740
C          4.08158        4.89911        1.40888
C          4.30258        5.20703        2.96491
C          5.82139        5.58099        2.68458
C          6.49598        6.72115        3.22742
C          7.06398        7.68943        3.69032
C          7.78822        8.92008        4.27807
O          8.16763        9.80559        3.45127
O          7.94431        8.94176        5.53779
H          4.38808        3.10453        3.96678
H          7.02916        3.74839        3.46703
H          6.66609        3.23826        0.77319
H          5.95831        5.89808        0.31574
H          3.24417        5.24777        0.81962
H          3.60949        5.75674        3.58737
