24

O          1.22551        0.25378        0.15597
C          2.49245        0.17765        0.12113
O          3.17969       -0.79408       -0.32044
C          3.28043        1.39060        0.67446
C          3.89546        2.34204        1.10610
C          4.60081        3.48664        1.61687
C          4.82889        3.78643        3.10821
C          6.30195        4.16288        2.82451
C          6.06730        3.84756        1.32677
C          5.69352        5.31033        1.08711
C          4.17621        4.93719        1.36651
C          4.41283        5.25780        2.91955
C          5.92950        5.63245        2.61099
C          6.60995        6.77414        3.14454
C          7.18484        7.74378        3.59602
C          7.91887        8.97709        4.16639
O          7.82870       10.05356        3.50011
O          8.54883        8.80894        5.25567
F          6.09940        6.04906        0.05739
H          4.51256        3.16104        3.93442
H          7.14775        3.80576        3.40007
H          6.75407        3.28086        0.70957
H          3.33376        5.28201        0.78242
H          3.72579        5.81119        3.54544
