14

O          1.18277        0.16533        0.25030
C          2.44942        0.11385        0.17186
O          3.12660       -0.43530       -0.75076
C          3.24730        0.78116        1.30433
C          3.88406        1.30483        2.19224
C          4.59177        1.95647        3.26605
C          5.89343        1.75298        3.54258
C          6.59872        2.39955        4.62118
C          7.23216        2.91747        5.51478
C          8.03072        3.58320        6.64818
O          7.61553        4.71636        7.04149
O          9.03505        2.94782        7.09584
H          4.01930        2.64789        3.87715
H          6.46639        1.06257        2.93073
