21

N          1.13711        0.08085        0.14069
C          2.30324        0.02836        0.13815
C          3.73779        0.00750        0.10842
C          4.44780        1.24477        0.11000
C          5.83059        1.29473       -0.11432
C          6.53451        2.55436       -0.30574
C          7.12562        3.59282       -0.49930
C          7.87454        4.91732       -0.74816
O          7.98328        5.29439       -1.95488
O          8.31719        5.51791        0.27819
C          6.51158        0.07632       -0.17514
C          5.82822       -1.15576       -0.02983
C          4.42836       -1.21325        0.03485
C          3.74548       -2.49931       -0.01093
C          3.15936       -3.55515       -0.08078
C          2.41057       -4.89646       -0.17073
O          1.49939       -4.98626       -1.04839
O          2.77993       -5.80065        0.63912
H          3.90772        2.17674        0.27070
H          7.58728        0.07079       -0.34214
H          6.40742       -2.07575        0.01371
