29

C          0.95647       -0.01467        0.10434
C          2.46880        0.00023        0.09048
C          3.03818       -1.28730        0.67635
C          4.55203       -1.31050        0.69311
C          5.28229       -0.79275       -0.42221
C          6.65942       -0.96966       -0.55974
C          7.34376       -0.59219       -1.78003
C          7.90900       -0.30681       -2.81602
C          8.62744        0.04478       -4.12493
O          9.70790       -0.57639       -4.36492
O          8.08135        0.92942       -4.85298
C          7.33280       -1.54951        0.51272
C          6.64215       -1.95656        1.68037
C          5.24351       -1.91872        1.75857
C          4.55902       -2.51906        2.89620
C          3.95473       -3.03262        3.81316
C          3.17376       -3.68395        4.96528
O          3.01348       -4.94156        4.90668
O          2.75540       -2.90736        5.87785
H          0.57748        0.91485       -0.32844
H          0.57590       -0.10925        1.12475
H          0.57828       -0.85203       -0.49065
H          2.84406        0.85892        0.65993
H          2.78449        0.13059       -0.94843
H          2.68981       -2.15753        0.10432
H          2.63454       -1.39587        1.68971
H          4.77431       -0.25200       -1.21636
H          8.40658       -1.69940        0.44708
H          7.21407       -2.32471        2.52780
