23

O          1.10063       -0.04667        0.05135
C          2.37504       -0.02297       -0.01019
O          3.04613        0.70389       -0.80119
C          3.09803       -0.91647        0.90245
C          2.67267       -2.37808        1.11159
C          4.15247       -2.80608        1.08939
C          4.55817       -1.33798        0.88139
C          4.67462       -1.15131        2.39328
C          3.15364       -0.68929        2.41345
C          2.73399       -2.20333        2.62648
C          4.23760       -2.63902        2.61637
C          4.89779       -3.59207        3.51150
O          4.22437       -4.11728        4.45472
O          6.11535       -3.88451        3.27032
O          1.70064       -2.59461        3.51117
O          5.68380       -0.42856        3.08275
O          5.55344       -0.94124       -0.05340
H          1.87743       -2.87889        0.57216
H          4.53384       -3.63966        0.51186
H          2.77068        0.16261        2.95913
H          0.92434       -2.09726        3.21345
H          5.76152        0.39790        2.58122
H          5.10556       -1.01172       -0.91578
