8

N          0.93179       -0.01885        0.07065
C          2.19275       -0.01885        0.07065
C          3.71275       -0.01885        0.07065
C          4.39295        0.60923       -0.92610
C          3.63295        1.31101       -2.03980
N          3.00247        1.89319       -2.96370
F          5.74141        0.61794       -0.93992
H          4.21588       -0.52930        0.88071
