20

O          1.23459       -0.17432       -0.05340
C          2.50038       -0.10919        0.01327
O          3.18125        0.64652        0.77186
C          3.29538       -1.03996       -0.91662
C          3.91021       -1.78261       -1.65077
C          4.56366       -2.70783       -2.55812
C          5.28732       -2.27061       -3.67493
C          5.80182       -3.19220       -4.62341
C          5.50207       -4.55806       -4.53756
C          4.82482       -4.98397       -3.39141
C          4.42594       -4.08589       -2.38219
F          4.50606       -6.27902       -3.23747
C          5.84822       -5.47742       -5.60346
C          6.10168       -6.25004       -6.50500
C          6.42080       -7.23101       -7.64097
O          5.44457       -7.62596       -8.34921
O          7.63988       -7.55624       -7.77850
H          5.44276       -1.20514       -3.83270
H          6.41462       -2.82679       -5.44460
H          3.97621       -4.48129       -1.47706
