19

O          1.02279       -0.00742        0.01695
C          2.29790        0.04466        0.01246
O          2.97922        1.12144       -0.00619
C          3.05646       -1.27341        0.02868
C          4.45234       -1.31419        0.04013
C          5.13816       -2.54062        0.03818
C          4.47376       -3.79147        0.02482
C          3.05977       -3.75885        0.03126
C          2.38312       -2.50581        0.02957
C          2.17291       -4.97286        0.04075
C          5.34361       -5.05994       -0.00287
O          6.60956       -4.89996        0.00325
O          4.79097       -6.20750       -0.03546
H          5.01428       -0.38285        0.04539
H          6.22738       -2.52473        0.04268
H          1.29271       -2.48578        0.02588
H          2.68402       -5.92835        0.05541
H          1.54099       -4.97589       -0.85325
H          1.54047       -4.95856        0.93458
