30

O          1.17882        0.04493       -0.23982
C          2.44618        0.06362       -0.16196
O          3.13594        0.26207        0.88546
C          3.22957       -0.18532       -1.47234
C          3.84149       -0.37517       -2.50121
C          4.55637       -0.59216       -3.73099
C          5.36982       -1.87326       -4.07606
C          4.71386       -1.89425       -5.50110
C          3.97748       -0.61316       -5.13054
C          5.07362        0.22115       -5.68657
C          5.72815        0.28987       -4.25198
C          6.49099       -1.03121       -4.63491
C          5.89133       -1.05405       -6.07331
C          6.58194       -1.29651       -7.30431
C          7.17296       -1.49815       -8.34558
C          7.92759       -1.75274       -9.66597
O          8.82216       -0.91021       -9.98527
O          7.58575       -2.78208      -10.32641
N          7.86037       -1.22391       -4.32042
N          4.91301        1.37186       -6.50321
N          2.60010       -0.42294       -5.43718
H          5.48087       -2.74752       -3.44641
H          4.28121       -2.77288       -5.96371
H          6.15598        1.16559       -3.78272
H          8.08789       -1.13760       -3.33367
H          8.47546       -0.58320       -4.82498
H          4.31031        2.07842       -6.08781
H          4.50808        1.14938       -7.41201
H          1.98225       -1.05241       -4.92279
H          2.36478       -0.50755       -6.42132
