14

O          0.40146        0.09593       -0.11664
C          1.70189        0.40210       -0.51893
O          3.43064       -0.13709        0.18955
C          3.41663       -0.65619        0.87164
C          4.81523       -0.86559        1.14678
C          5.52890       -0.04285        0.06571
C          4.89154        0.69423       -0.90279
C          3.08404        0.69398       -0.90246
O          2.56325        1.47486       -1.92852
O          2.01091       -0.36251        0.48575
F          5.47646        1.42968       -1.86915
F          5.33499       -1.60625        2.12000
H          2.79043       -1.36842        1.80749
H          6.54669       -0.06713        0.09762
