20

O          1.12425        0.09161       -0.14209
C          2.39020        0.09194       -0.06070
O          3.08429        0.07603        1.00097
C          3.16458        0.12219       -1.38621
C          3.77716        0.12911       -2.42898
C          4.51359        0.11617       -3.68475
C          4.85354        1.33684       -4.28304
C          5.56066        1.38810       -5.50470
Br         5.94418        3.12210       -6.20218
C          5.95945        0.21899       -6.17519
C          5.62305       -1.01710       -5.57589
C          4.90464       -1.06870       -4.34141
Br         4.44613       -2.75293       -3.54168
Br         6.15152       -2.64057       -6.45965
C          6.68508        0.29788       -7.43359
C          7.28857        0.38287       -8.47975
C          8.05536        0.48905       -9.79868
O          8.87991       -0.44204      -10.04587
O          7.79876        1.49639      -10.52533
H          4.56285        2.26571       -3.79455
