30

N          1.06229        0.05402       -0.01218
N          2.30240       -0.07475       -0.02139
C          2.89441        0.50673       -1.17899
C          4.32940        0.17153       -1.59474
C          3.83301        0.02653       -3.06372
C          2.38240        0.34930       -2.60797
C          2.64868        1.82949       -2.82902
C          3.15237        2.00113       -1.33380
C          4.64167        1.66027       -1.82696
C          4.09345        1.50820       -3.29307
N          4.76710        2.06269       -4.41137
N          4.21187        1.82965       -5.50147
C          5.82296        2.36391       -1.41085
C          6.81923        2.96319       -1.06513
C          8.09220        3.73097       -0.62928
O          9.19117        3.34573       -1.13504
O          7.93103        4.67905        0.19961
N          1.81033        2.76654       -3.48440
N          0.70947        2.90985       -2.92042
C          1.21980       -0.39274       -3.01638
C          0.21356       -0.99934       -3.32274
C         -1.07257       -1.75441       -3.71177
O         -1.11398       -2.22755       -4.88925
O         -1.98002       -1.84416       -2.82735
H          0.58516       -0.45070        0.74482
H          4.98709       -0.53762       -1.10565
H          4.12568       -0.77759       -3.72809
H          2.87927        2.78815       -0.64443
H          4.71280        2.27270       -6.28327
H          0.07902        3.52254       -3.45174
