14

Cl         1.07574        0.03900        0.02460
C          2.79925       -0.09257        0.03256
C          3.47945       -1.26800        0.11239
C          2.71945       -2.58134        0.20160
C          2.06752       -3.70791        0.27811
C          1.30793       -5.01891        0.35082
O          1.22409       -5.55570        1.49555
O          0.83992       -5.45688       -0.74268
C          3.55925        1.22076       -0.05664
C          4.21118        2.34734       -0.13316
C          4.95569        3.66254       -0.22851
O          6.14955        3.65961        0.19428
O          4.31241        4.63558       -0.72313
H          4.56143       -1.31229        0.11589
