17

C          0.95060       -0.00485        0.04132
C          2.45778       -0.07172        0.03139
C          3.13798       -1.23837       -0.13275
C          2.37798       -2.54189       -0.31614
C          1.72605       -3.66005       -0.47346
C          0.97883       -4.96520       -0.66811
O         -0.04998       -5.13633        0.05004
O          1.45811       -5.76080       -1.53197
C          3.21778        1.23180        0.21478
C          3.86971        2.34996        0.37209
C          4.62381        3.65060        0.57130
O          5.13433        4.16902       -0.46520
O          4.66809        4.09600        1.75811
H          0.47228       -0.97989       -0.09591
H          0.59027        0.63548       -0.76926
H          0.59048        0.38709        0.99709
H          4.22071       -1.28454       -0.14010
