30

O          1.15555       -0.05048        0.16665
C          2.42344       -0.04116        0.06307
O          3.09847       -0.53769       -0.89241
C          3.19874        0.61078        1.18113
C          4.36229        1.34819        0.91085
C          5.12394        1.91758        1.94525
C          6.29578        2.64153        1.68069
C          7.05352        3.18547        2.72109
C          6.65997        3.02226        4.05433
C          5.47951        2.30087        4.34188
C          4.70794        1.74847        3.28549
C          3.52661        1.02605        3.57235
C          2.78525        0.46993        2.51484
C          3.13082        0.87563        4.90930
C          3.89395        1.41815        5.94915
C          5.07217        2.13114        5.68297
C          5.85338        2.68329        6.71536
C          7.02785        3.40762        6.44632
C          7.41532        3.56409        5.10645
C          7.85232        4.01045        7.56738
O          7.44080        3.83132        8.75715
O          8.89960        4.65710        7.23858
H          4.66739        1.46217       -0.12820
H          6.63164        2.78200        0.65688
H          7.95933        3.73859        2.48632
H          1.88038       -0.10391        2.71068
H          2.22150        0.33076        5.15007
H          3.56216        1.28265        6.97532
H          5.55406        2.55916        7.75535
H          8.32576        4.12448        4.89603
