18

C          1.07945        0.21915        0.09232
O          2.47817        0.01886        0.08516
C          2.99627       -1.27283        0.03900
C          2.32534       -2.45776       -0.00334
C          0.89342       -2.69438       -0.01179
C          0.20322       -3.84545       -0.05292
C         -1.34187       -3.77444       -0.05039
O         -1.87685       -2.63001       -0.00949
O         -1.90810       -4.90800       -0.09089
C          4.59905       -1.31024        0.03767
O          5.17604       -0.17775        0.07813
O          5.14168       -2.45569       -0.00326
H          0.84760        1.28437        0.13038
H          0.64091       -0.21734        0.99743
H          0.64091       -0.15162       -0.84164
H          2.92725       -3.36652       -0.03581
H          0.23862       -1.84799        0.01845
H          0.69685       -4.80334       -0.08715
