14

O          1.75459        0.98415        0.68039
C          2.86007        0.48382        0.37674
O          4.00135        0.97473        0.67468
C          3.01827       -0.95808       -0.49833
C          2.30454       -1.94559       -1.09765
C          0.87674       -2.23112       -1.27094
C         -0.07279       -1.44443       -0.79350
C         -1.60947       -1.41900       -0.77807
O         -2.11323       -0.42110       -0.17245
O         -2.22068       -2.36330       -1.35116
F          0.40511       -0.38166       -0.14851
F          0.57410       -3.36619       -1.95981
F          4.35979       -1.21557       -0.65460
H          2.90957       -2.72650       -1.57158
