22

O          1.09007        0.05595       -0.04308
C          2.36176        0.11810        0.00741
O          3.08209        1.03065       -0.50403
C          3.06808       -1.00525        0.72694
C          2.63698       -2.32378        0.54483
C          3.25363       -3.37908        1.22126
C          4.33066       -3.14951        2.09061
C          4.78449       -1.82660        2.28895
C          4.14725       -0.76807        1.59844
C          5.85826       -1.61545        3.17374
C          6.47530       -2.68788        3.83549
C          6.03921       -4.00598        3.64334
C          4.96238       -4.21527        2.76420
C          6.70358       -5.16829        4.36128
O          6.25210       -6.33599        4.13546
O          7.67136       -4.89495        5.14551
H          1.80986       -2.51761       -0.13440
H          2.87995       -4.38711        1.06904
H          4.47768        0.25970        1.73919
H          6.22572       -0.60979        3.35688
H          7.30901       -2.50222        4.51058
H          4.61989       -5.23711        2.60605
