9

N          0.94286        0.07815        0.02503
C          2.20382        0.07815        0.02503
C          3.72382        0.07815        0.02503
C          4.40402        0.78822        0.96515
C          3.64402        1.58159        2.01556
N          3.01354        2.23975        2.88697
O          5.78388        0.83124        1.02211
H          4.20527       -0.50545       -0.74765
H          6.16116        0.29140        0.30737
