24

O          1.25970       -0.20639       -0.00803
C          2.52817       -0.13593       -0.01265
O          3.21918        0.92840       -0.07225
C          3.29974       -1.46550        0.05996
C          3.90984       -2.51019        0.11739
C          4.65437       -3.75989        0.18891
C          6.05732       -3.74645        0.32855
C          6.79447       -4.94578        0.40010
C          8.23903       -4.92164        0.53747
C          9.44645       -4.90738        0.65040
C         10.97350       -4.88603        0.79381
O         11.49689       -3.79261        1.17246
O         11.59088       -5.96243        0.52287
C          6.10668       -6.17377        0.33548
C          4.70509       -6.21962        0.19820
C          3.99083       -5.00442        0.12243
C          4.01742       -7.50162        0.14096
C          3.46049       -8.57614        0.09719
C          2.75744       -9.94378        0.03922
O          2.65255      -10.48624       -1.10471
O          2.33667      -10.42096        1.13887
H          6.58234       -2.79396        0.38236
H          6.67101       -7.10306        0.39346
H          2.90802       -5.02665        0.01246
