22

O          1.24476        0.05047       -0.09278
C          2.51092       -0.00436       -0.02162
O          3.19474       -0.53635        0.90546
C          3.29836        0.64676       -1.17235
C          3.90745        1.16936       -2.07790
C          4.59271        1.84056       -3.17080
C          4.46839        3.22745       -3.32850
C          5.07188        3.89051       -4.41868
O          4.91325        5.24712       -4.55533
C          5.82636        3.20006       -5.37901
C          5.96487        1.81375       -5.20069
C          5.36162        1.14122       -4.11196
O          6.68312        1.03559       -6.07871
C          6.42340        3.90164       -6.49944
C          6.91662        4.49766       -7.43074
C          7.54123        5.25633       -8.60022
O          7.03226        6.37989       -8.89397
O          8.51456        4.68230       -9.17699
H          3.88831        3.78587       -2.59937
H          4.35706        5.58495       -3.83914
H          5.49323        0.06591       -4.01681
H          7.03320        1.61944       -6.78026
