28

O          1.20740        0.12763        0.02274
C          2.47882        0.03904       -0.06589
O          3.18363        0.73507       -0.86871
C          3.18963       -0.97586        0.83806
C          2.75826       -2.33196        0.84266
C          1.75892       -2.78047       -0.06368
C          1.25805       -4.07725       -0.06582
C          1.77036       -4.98398        0.82718
C          2.78387       -4.58555        1.69506
C          3.32456       -3.27302        1.75832
C          4.36870       -2.87133        2.67641
C          4.82859       -1.49864        2.62326
C          4.24427       -0.56626        1.70479
C          4.73465        0.76954        1.69464
C          5.75453        1.21594        2.53127
C          6.31427        0.33535        3.42276
C          5.85472       -0.97821        3.45708
C          4.98438       -3.89733        3.70674
O          5.90281       -3.53356        4.50950
O          4.56247       -5.10356        3.74251
H          1.33263       -2.09471       -0.79447
H          0.47174       -4.35677       -0.75494
H          1.40857       -6.00375        0.87502
H          3.13765       -5.37310        2.34591
H          4.32359        1.50032        1.00027
H          6.09809        2.24129        2.47801
H          7.10468        0.63354        4.10134
H          6.35159       -1.59627        4.19255
