8

O          1.09230        0.15190        0.03311
C          2.36219        0.10665       -0.01566
O          3.05392       -0.65685       -0.76107
C          3.12512        1.05456        0.90362
C          3.73040        1.80689        1.63308
C          4.49338        2.75495        2.55246
O          5.71969        2.49237        2.76220
O          3.84415        3.73448        3.03807
