14

N          1.14402       -0.03408       -0.05181
C          2.30701       -0.01823       -0.03921
C          3.74074       -0.00241       -0.06434
C          4.43511        1.21182       -0.06265
C          5.81812        1.22972       -0.27776
C          6.53272        0.03100       -0.36873
C          5.85578       -1.18328       -0.21496
C          4.45837       -1.20151       -0.12807
C          7.93674        0.05082       -0.65716
N          9.06875        0.07579       -0.92571
H          3.90479        2.15165        0.08095
H          6.33129        2.18435       -0.38372
H          6.40615       -2.12215       -0.18603
H          3.93535       -2.15675       -0.12092
