14

O          0.90152        0.30903        0.61502
C          2.02374        0.01374        0.10939
O          2.21391       -0.61112       -0.96057
C          3.21166        0.50338        0.94781
C          4.56402        0.50004        0.94210
C          5.53890       -0.07569       -0.04373
C          6.90146       -0.08809       -0.06497
C          7.84081       -0.74941       -1.19737
O          9.09159       -0.63312       -0.99825
O          7.31484       -1.32736       -2.18701
Cl         7.89003        0.64867        1.19661
Cl         4.79439       -0.87340       -1.40968
Cl         5.18677        1.34234        2.38440
H          2.73935        1.00474        1.80631
