22

N          1.21801        0.12890        0.01441
C          2.37923        0.04973        0.00880
C          3.81608        0.02199        0.00857
C          4.51079        1.26409        0.01008
C          5.90808        1.32140        0.00896
C          6.60873        2.59316       -0.00434
C          7.19160        3.65270       -0.01880
C          7.93367        5.00081       -0.03312
O          8.29727        5.45656        1.09306
O          8.11561        5.53575       -1.16849
C          6.60503        0.10881        0.01544
C          5.92477       -1.14181        0.01473
C          4.51677       -1.20055        0.00707
C          3.81030       -2.47466       -0.00688
C          3.22059       -3.52919       -0.02120
C          2.47323       -4.87063       -0.03583
O          2.85032       -5.73334        0.81285
O          1.54857       -4.99323       -0.89423
C          6.71525       -2.34209        0.01853
N          7.40339       -3.28081        0.01895
H          3.94827        2.19851        0.00944
H          7.69555        0.13197        0.01843
