20

C          1.04033        0.24030        0.27412
C          2.52949        0.03150       -0.00764
C          2.94208       -0.85566       -1.20459
C          2.05804       -1.47138       -2.03530
C          0.56364       -1.30598       -1.81216
C         -0.71827       -1.16411       -1.62074
C         -2.21204       -1.00576       -1.41104
O         -2.57425       -0.44268       -0.34065
O         -2.95670       -1.45790       -2.33836
C          4.43648       -1.02105       -1.42774
C          5.71838       -1.16293       -1.61915
C          7.20690       -1.33701       -1.85006
O          7.97188       -0.59110       -1.17663
O          7.54090       -2.22057       -2.70194
H          0.80770        0.87320        1.12802
H          0.57283       -0.72752        0.49990
H          0.57257        0.73768       -0.58613
H          2.96189       -0.39631        0.90340
H          2.96188        1.02760       -0.15197
H          2.37517       -2.08869       -2.86785
