17

C          0.99981        0.01705       -0.13469
C          2.50690        0.05789       -0.08048
C          3.18710        0.77420        0.85488
C          2.42710        1.57455        1.89999
C          1.77518        2.26108        2.79648
C          1.01219        3.07002        3.82772
O          1.06766        2.65313        5.02219
O          0.39273        4.08828        3.39399
C          3.26690       -0.74246       -1.12559
C          3.91883       -1.42900       -2.02208
C          4.66523       -2.22292       -3.07674
O          5.69424       -2.84907       -2.68597
O          4.18467       -2.18466       -4.25004
H          0.52145        0.61566        0.64709
H          0.63948       -1.00791       -0.00614
H          0.63968        0.40821       -1.09077
H          4.26991        0.80152        0.89233
