16

O          1.11421       -0.09560       -0.15009
C          2.38289       -0.08101       -0.02054
O          3.04039        0.73196        0.70351
C          3.17356       -1.10944       -0.79255
C          4.26963       -1.75208       -0.19961
C          5.04598       -2.66691       -0.92300
C          4.71005       -3.02322       -2.23912
C          3.61948       -2.36689       -2.83562
C          2.86014       -1.42548       -2.12248
C          5.47078       -4.11842       -2.96699
O          6.43305       -4.68067       -2.34804
O          5.08792       -4.42239       -4.14491
H          4.50711       -1.54133        0.83980
H          5.91794       -3.11865       -0.45604
H          3.35874       -2.60188       -3.86529
H          2.01656       -0.93317       -2.59995
