14

O          1.13456        0.08688        0.11276
C          2.39240       -0.03998        0.00123
O          3.03693       -0.85272       -0.71335
C          3.18483        0.94875        0.87054
C          4.52561        0.95103        0.87254
C          5.37668        1.83127        1.64647
C          6.72710        1.83775        1.65216
C          7.72037        0.90575        0.83272
O          8.95619        1.11581        1.01741
O          7.21225        0.03627        0.06826
Br         7.59849        3.11082        2.77146
H          2.61193        1.63871        1.47716
H          5.01785        0.22344        0.23283
H          4.84847        2.54642        2.27524
