27

N          1.26842        0.05172        0.09546
C          2.42875        0.06055        0.05054
C          3.84721        0.07774        0.03307
C          4.72582       -0.95677        0.75816
C          5.61972       -1.04808       -0.50485
C          4.72524       -0.00730       -1.21774
C          5.61675        1.11153       -0.69164
C          4.69387        1.22204        0.60820
C          5.61751        0.14554        1.34195
C          6.52149        0.05893        0.05279
C          7.93498        0.05161        0.05449
N          9.09737        0.04623        0.03455
C          6.06934        0.24652        2.70062
C          6.46135        0.33066        3.84384
C          6.96766        0.43687        5.30856
O          8.08902       -0.09832        5.56127
O          6.21113        1.04540        6.12482
C          6.09593        2.22713       -1.41266
N          6.50507        3.15502       -1.98254
C          4.24955       -0.13868       -2.57202
C          3.84239       -0.23067       -3.70952
C          3.31977       -0.33959       -5.16951
O          2.68103        0.65924       -5.61905
O          3.58006       -1.41916       -5.78265
H          4.36046       -1.82049        1.30176
H          5.96609       -1.98062       -0.93492
H          4.32999        2.14054        1.05133
