26

C          1.07357        0.23024        0.07660
C          2.57118       -0.00196        0.11126
C          3.02062       -1.45848        0.18089
C          4.43147       -1.68863        0.02136
C          4.96058       -2.97721       -0.13905
C          6.34783       -3.20645       -0.49366
C          7.49879       -3.42445       -0.82337
C          8.95063       -3.69706       -1.24030
O          9.13393       -4.56672       -2.14682
O          9.84587       -3.02762       -0.63905
C          4.08433       -4.05038        0.02334
C          2.72300       -3.84670        0.33100
C          2.15117       -2.57039        0.34850
C          0.69633       -2.50206        0.49413
C         -0.50056       -2.31840        0.56135
C         -1.97985       -1.88510        0.60342
O         -2.73533       -2.34807       -0.30458
O         -2.31319       -1.08261        1.52992
H          0.78548        1.27539       -0.02278
H          0.64354       -0.10740        1.02421
H          0.63616       -0.30355       -0.77657
H          2.98681        0.54366        0.96658
H          2.98811        0.44550       -0.80135
H          5.11939       -0.84238       -0.00331
H          4.44750       -5.06719       -0.09498
H          2.08920       -4.70565        0.53482
