24

O          1.12771       -0.12566       -0.07109
C          2.39459       -0.05936       -0.01782
O          3.08047        0.75785        0.67016
C          3.18457       -1.07793       -0.87717
C          3.79935       -1.87605       -1.55140
C          4.49889       -2.83797       -2.36083
C          4.47860       -4.35462       -2.11223
C          4.18690       -4.60856       -3.60761
C          4.20984       -3.08194       -3.85104
C          5.70301       -3.15329       -4.17384
C          6.00653       -2.88007       -2.63348
C          5.98990       -4.46553       -2.38258
C          5.68133       -4.71083       -3.92379
C          6.31303       -5.71293       -4.72959
C          6.85329       -6.55243       -5.42059
C          7.53679       -7.61553       -6.30710
O          6.82851       -8.12592       -7.22846
O          8.74563       -7.89228       -6.03614
Br         6.55504       -2.28057       -5.56711
H          3.97104       -4.85131       -1.29414
H          3.41021       -5.26988       -3.97175
H          3.47289       -2.54374       -4.43574
H          6.77102       -2.21444       -2.25384
H          6.70869       -5.00730       -1.78217
