11

N          0.96978        0.00043       -0.09532
C          2.23075        0.00043       -0.09532
C          3.75075        0.00043       -0.09532
C          4.37384       -1.05610       -0.66939
C          3.72984       -2.28228       -1.33564
O          2.47628       -2.35207       -1.37356
O          4.56654       -3.12121       -1.79147
C          4.49153        1.17928        0.54520
O          3.77595        2.09680        1.04374
O          5.76090        1.13011        0.51849
H          5.46209       -1.07064       -0.67729
