14

O          1.11651       -0.05164        0.20641
C          2.37384        0.03648        0.06233
O          3.01875        0.60131       -0.86118
C          3.16680       -0.65002        1.18478
C          4.50708       -0.64878        1.18276
C          5.36390       -1.25644        2.17630
C          6.70965       -1.25613        2.17579
C          7.69765       -0.61432        1.12641
O          8.92562       -0.78057        1.39824
O          7.21006       -0.00643        0.13250
F          7.28854       -1.90104        3.23023
H          2.59717       -1.13040        1.97021
H          4.99784       -0.14265        0.35522
H          4.86793       -1.76155        3.00216
