24

C          1.12491        0.06728       -0.08283
O          2.54911        0.13939       -0.05003
C          3.14935       -0.14228       -1.25626
C          2.72206        0.48902       -2.45233
C          3.25392        0.12817       -3.69622
C          2.68737        0.62626       -4.93483
C          2.19350        1.00752       -5.97569
C          1.56300        1.48507       -7.29177
O          0.64971        0.75496       -7.78526
O          2.00895        2.57202       -7.77113
C          4.33990       -0.75062       -3.70264
C          4.87175       -1.26326       -2.49582
C          4.24724       -1.02191       -1.26201
C          4.70877       -1.71131       -0.06609
C          5.06659       -2.31555        0.92268
C          5.50504       -3.08398        2.17846
O          4.83468       -2.88129        3.23736
O          6.50248       -3.85944        2.05073
H          0.75890        0.21215        0.93897
H          0.77359       -0.91239       -0.42731
H          0.69432        0.86689       -0.69248
H          1.97634        1.27710       -2.41499
H          4.78407       -1.04741       -4.65020
H          5.77344       -1.87067       -2.53403
