8

N          0.93842        0.06753       -0.04059
C          2.19939        0.06753       -0.04059
C          3.71939        0.06753       -0.04059
C          4.39959        1.07710        0.56669
C          3.63959        2.20511        1.24521
N          3.00910        3.14088        1.80811
Br         6.25769        1.16503        0.61958
H          4.20799       -0.76034       -0.53858
