20

O          1.14410        0.08425        0.06168
C          2.41126        0.04527       -0.00265
O          3.10623       -0.43385       -0.95061
C          3.17941        0.63799        1.18957
C          3.77422        1.11734        2.13083
C          4.48373        1.72528        3.24267
C          4.32856        3.08503        3.53339
C          5.11020        3.71838        4.52926
C          5.98170        2.98644        5.34133
C          6.03529        1.60227        5.14089
C          5.34600        0.98917        4.06340
C          6.81134        3.64572        6.33117
C          7.52742        4.21205        7.13108
C          8.43906        4.92977        8.13615
O          9.68788        4.86842        7.91816
O          7.86477        5.52120        9.10109
H          3.59916        3.67118        2.98010
H          5.02930        4.79425        4.66339
H          6.62085        0.98495        5.81809
H          5.49453       -0.07166        3.87545
