18

C          1.05708       -0.07604        0.16924
O          2.45579        0.02785       -0.00214
C          2.97390        0.69783       -1.10746
C          2.30297        1.31243       -2.12142
C          0.87104        1.43517       -2.32389
C          0.18085        2.03221       -3.30888
C         -1.36424        1.99538       -3.24812
O         -1.89922        1.40178       -2.26881
O         -1.93047        2.58334       -4.21812
C          4.57668        0.71723       -1.13947
O          5.15367        0.12983       -0.17039
O          5.11931        1.31136       -2.11965
H          0.82523       -0.62855        1.08077
H          0.61854       -0.65354       -0.65310
H          0.61854        0.92018        0.30080
H          2.90488        1.78379       -2.89905
H          0.21625        0.99615       -1.59963
H          0.67448        2.52906       -4.12856
