14

Br         1.05502       -0.09871        0.08458
C          2.92411        0.09317       -0.00558
C          3.52797        1.17914       -0.52788
C          2.83882        2.32071       -1.08190
C          2.25936        3.27669       -1.54755
C          1.50041        4.47796       -2.13014
O          0.58523        4.97706       -1.40637
O          1.85515        4.87178       -3.28369
C          3.68411       -1.09414        0.56284
C          4.33603       -2.11261        1.05042
C          5.07964       -3.30619        1.61789
O          6.32341       -3.15274        1.80449
O          4.38639       -4.34113        1.84964
H          4.61232        1.21895       -0.54521
