20

O          1.16770        0.03726        0.04647
C          2.43738       -0.01862        0.03949
O          3.14642       -0.46200        0.99576
C          3.13737        0.49916       -1.13780
C          4.55750        0.12352       -1.57886
C          4.06001       -0.01325       -3.03261
C          2.64530        0.36386       -2.56652
C          2.93063        1.83160       -2.84027
C          3.43878        1.98370       -1.34425
C          4.89394        1.59264       -1.83562
C          4.37706        1.45782       -3.30093
C          5.01238        1.97704       -4.50354
O          6.09765        2.62406       -4.38097
O          4.44914        1.72434       -5.61629
F          5.99918        2.20010       -1.41202
F          2.10589        2.70524       -3.41614
F          1.56057       -0.29773       -2.97239
H          5.21829       -0.58058       -1.08832
H          4.29066       -0.84537       -3.68634
H          3.20762        2.80416       -0.67881
