14

O          1.23168        0.09228       -0.15716
C          2.48988        0.05583       -0.00392
O          3.15288       -0.19282        1.04140
C          3.28125        0.35946       -1.28037
C          4.62278        0.37294       -1.33703
C          5.37268        0.66044       -2.54569
C          6.71446        0.67418       -2.60344
C          7.50551        0.97784       -3.88004
O          6.84227        1.22646       -4.92520
O          8.76375        0.94145       -3.72703
H          2.68773        0.56981       -2.16466
H          5.18816        0.15775       -0.43238
H          4.80706        0.87561       -3.45025
H          7.30831        0.46388       -1.71936
