30

O          1.11903        0.07645        0.10986
C          2.38852        0.00711        0.02670
O          3.06899       -1.03961       -0.19572
C          3.15752        1.28347        0.24742
C          4.31498        1.57945       -0.48708
C          5.08068        2.71551       -0.18889
C          4.66737        3.61556        0.80390
C          3.50346        3.31603        1.52463
C          2.75645        2.17194        1.24739
C          5.42839        4.86075        1.01837
C          5.08119        5.81921        1.89362
C          5.76955        7.10447        2.02768
C          5.95871        7.65287        3.30023
C          6.49743        8.93492        3.44108
C          6.92331        9.66489        2.31976
C          6.70967        9.11102        1.04800
C          6.12990        7.84959        0.90206
C          7.63768       10.99253        2.47906
O          7.80783       11.42373        3.66368
O          8.03523       11.57044        1.41692
H          4.61432        0.91102       -1.29167
H          6.00357        2.87951       -0.73929
H          3.14741        3.95568        2.32317
H          1.85855        1.95683        1.82223
H          6.29604        5.00612        0.37846
H          4.21761        5.72172        2.54187
H          5.70276        7.08708        4.19206
H          6.60235        9.37456        4.43130
H          7.00188        9.67496        0.16452
H          5.95907        7.46021       -0.09715
