11

O          0.88000       -0.45247       -0.28159
C          2.05379       -0.05946        0.03225
O          2.34802        0.89049        0.79086
C          3.14593       -0.90960       -0.64665
C          4.49282       -0.93049       -0.66333
C          5.55132        0.02280        0.09795
O          6.77079       -0.27369       -0.13882
O          5.13320        0.94777        0.83660
O          5.11214       -1.92815       -1.46004
H          2.62965       -1.66242       -1.24783
H          4.41510       -2.44910       -1.87606
