16

N          1.21196        0.03748       -0.06662
N          2.45381        0.09334       -0.00606
C          3.01062        1.04050        0.85485
C          2.33042        1.91103        1.64870
C          0.81042        1.91103        1.64870
C         -0.49343        1.91103        1.64870
C         -2.00929        1.89473        1.63549
O         -2.58548        2.79280        2.31870
O         -2.55858        0.98375        0.94273
C          4.53062        1.04050        0.85485
C          5.83448        1.04050        0.85485
C          7.34854        1.05601        0.85202
O          7.92336       -0.05319        1.04821
O          7.89383        2.18557        0.65568
H          0.78406       -0.65224       -0.68406
H          2.83261        2.62007        2.29355
