14

O          1.26717       -0.21786       -0.13984
C          2.52634       -0.29885       -0.24458
O          3.20610       -0.95052       -1.08730
C          3.30263        0.49516        0.78222
C          4.59969        0.69121        1.03575
C          5.11554        1.52683        2.11635
C          4.49503        2.25702        3.06061
C          3.06887        2.61672        3.52577
O          2.06918        2.16809        2.94562
O          3.07212        3.39891        4.53728
Cl         6.88860        1.56640        2.16752
H          2.57628        0.97867        1.40749
H          5.32631        0.19453        0.39345
H          5.15825        2.78982        3.74962
