14

N          1.27520       -0.01367        0.01024
C          2.43783       -0.03165        0.02303
C          3.87097       -0.05069       -0.00144
C          4.59343        1.14706       -0.06872
C          5.99209        1.12550       -0.15289
C          6.66416       -0.09299       -0.29951
C          5.93696       -1.27776       -0.21279
C          4.55917       -1.26586        0.00131
F          6.55073       -2.46034       -0.35802
C          8.06687       -0.12974       -0.57274
N          9.20313       -0.13821       -0.82443
H          4.07195        2.10405       -0.06636
H          6.54537        2.06314       -0.12843
H          4.03804       -2.20963        0.13956
