10

C          0.99131       -0.24025        0.01712
C          2.47338       -0.08771       -0.05025
C          2.95855        0.19179       -1.46349
H          0.48388       -0.09327        0.96562
H          0.45306       -0.74650       -0.77497
H          2.93834       -1.00638        0.32216
H          2.78297        0.73001        0.60859
H          2.63030       -0.58646       -2.16015
H          4.05291        0.22498       -1.48608
H          2.58433        1.15490       -1.82683
