22

C          0.91778       -0.03648        0.10577
C          2.43706       -0.04642        0.08834
C          2.96834        0.19644       -1.30243
C          3.40496       -0.92726       -2.05150
C          4.05218       -0.78570       -3.28933
C          4.11672        0.49824       -3.83796
C          3.64112        1.61152       -3.13167
C          3.06824        1.49982       -1.84794
C          2.59955        2.78730       -1.14871
O          2.74888        3.88237       -1.78292
O          2.08087        2.72222        0.01573
C          4.74607       -1.95788       -3.96223
O          4.68438       -3.09292       -3.39073
O          5.37911       -1.72267       -5.04724
H          0.55119       -0.11025        1.13287
H          0.52218       -0.87657       -0.47255
H          0.49976        0.87356       -0.33594
H          2.80337       -1.00602        0.47505
H          2.86333        0.68846        0.78007
H          3.27829       -1.93309       -1.65118
H          4.57037        0.63637       -4.81665
H          3.75114        2.59894       -3.57514
