23

N          1.20383        0.11558       -0.07229
C          2.36337        0.03734       -0.06994
C          3.80303        0.01148       -0.06893
C          4.49623        1.25136       -0.06963
C          5.89788        1.31600       -0.06977
C          6.56030        2.61058       -0.07908
C          7.13689        3.67253       -0.08989
C          7.88160        5.01686       -0.10423
O          8.88864        5.11402        0.65852
O          7.41099        5.90926       -0.87186
C          6.61598        0.10682       -0.06447
C          5.92677       -1.14702       -0.06480
C          4.51122       -1.20597       -0.06756
C          3.80162       -2.48087       -0.06578
C          3.20752       -3.53340       -0.06388
C          2.45495       -4.87471       -0.06587
O          2.54207       -5.56496       -1.12527
O          1.81813       -5.16573        0.99075
C          6.69053       -2.36706       -0.06049
N          7.35142       -3.32385       -0.05405
C          8.05575        0.15043       -0.05875
N          9.21909        0.16592       -0.05670
H          3.93062        2.18526       -0.07070
