20

N         -1.78905       -0.05903        0.01844
C         -0.95436        1.49122       -0.30709
C          0.85390        1.65295       -0.38283
C          1.82410        0.06827       -0.00379
C          0.97085       -1.58029        0.38920
C         -0.84467       -1.54676        0.33472
C          3.13195        0.10885       -0.00657
C          2.40748        0.59091        1.48327
C          0.76467        0.50252        1.56712
N          0.07952        0.00149       -0.01614
C          0.80031       -0.45195       -1.58227
C          2.43859       -0.42525       -1.49429
H         -1.59500        2.33937       -0.08878
H          1.32309        2.61355       -0.17652
H          1.50510       -2.50675        0.18217
H         -1.42245       -2.43915        0.10993
H          2.98530        1.19277        2.17981
H          0.08887        1.06824        2.19836
H          0.15919       -1.06422       -2.20446
H          3.05161       -0.99237       -2.18900
