16

O          1.18296       -0.06510        0.13286
C          2.45356       -0.05069        0.04253
O          3.13100       -0.51442       -0.92877
C          3.22077        0.56121        1.18889
C          2.80723        0.37974        2.50887
C          3.54750        0.92228        3.56958
C          4.72794        1.68030        3.36488
C          5.12922        1.86695        2.02910
C          4.38299        1.31266        0.96549
Br         6.67637        2.83605        1.47830
C          5.45484        2.21587        4.59530
O          4.95117        1.93298        5.73420
O          6.51183        2.91018        4.45497
H          1.91097       -0.20338        2.70812
H          3.20043        0.74435        4.58711
H          4.70491        1.46006       -0.06390
