29

O          1.20654       -0.17496       -0.00798
C          2.47917       -0.10380       -0.02222
O          3.13062        0.93666       -0.36023
C          3.24280       -1.29970        0.39402
C          2.72430       -2.73810        0.28955
C          4.08400       -3.19884       -0.27191
C          4.60065       -1.73835       -0.18905
C          5.14861       -2.01213        1.24011
C          3.72927       -1.53388        1.82063
C          3.19222       -3.04619        1.72963
C          4.59622       -3.50159        1.13006
C          5.35924       -4.69654        1.53653
O          4.87911       -5.44115        2.44992
O          6.46915       -4.91588        0.94928
C          2.41168       -3.72752        2.79307
C          6.47134       -1.61592        1.78681
C          5.37161       -1.04281       -1.25775
H          1.76513       -3.03332       -0.11936
H          4.19999       -3.84358       -1.13502
H          3.59550       -0.87602        2.66932
H          1.48568       -3.19016        3.01391
H          2.99106       -3.78939        3.72005
H          2.14764       -4.74657        2.49403
H          6.60296       -0.53065        1.75403
H          7.28525       -2.07064        1.21380
H          6.57486       -1.93688        2.82778
H          4.79016       -0.96767       -2.18179
H          6.30011       -1.57447       -1.48584
H          5.64170       -0.02748       -0.94909
