26

C          1.03316       -0.06617        0.08883
C          2.55741       -0.02331        0.11209
C          3.06912        1.36764       -0.20093
C          2.53453        2.47678        0.52673
C          2.76229        3.79780        0.13312
C          2.03704        4.90349        0.72917
C          1.41148        5.83195        1.19843
C          0.62310        7.00987        1.78887
O         -0.62742        7.02686        1.57249
O          1.29146        7.86565        2.44602
C          3.69065        4.00411       -0.88667
C          4.35967        2.91843       -1.50168
C          4.01224        1.58931       -1.22286
C          4.58238        0.50962       -2.01543
C          5.01325       -0.40775       -2.68091
C          5.54822       -1.57610       -3.52191
O          4.99648       -2.70609       -3.34768
O          6.50071       -1.31020       -4.31712
H          0.67441       -1.08026        0.28004
H          0.65153        0.25959       -0.88590
H          0.59820        0.58711        0.85122
H          2.90987       -0.75612       -0.62137
H          2.94202       -0.34297        1.08643
H          1.89244        2.29821        1.38728
H          3.90105        5.01710       -1.21903
H          5.14167        3.12591       -2.22780
