36

O          1.17186       -0.02853        0.01976
C          2.44362       -0.05980       -0.06180
O          3.13219       -0.89869       -0.71626
C          3.20095        0.97663        0.72764
C          4.39796        1.52465        0.24745
C          5.16005        2.36752        1.05877
C          4.70853        2.74558        2.33442
C          3.50062        2.21203        2.80104
C          2.75359        1.34512        2.00313
C          5.51458        3.64764        3.16076
C          5.94012        4.88827        2.66548
C          6.83783        5.66918        3.39111
C          7.26043        5.27898        4.67040
C          6.80643        4.05614        5.17973
C          5.94200        3.25299        4.43506
C          8.18885        6.12769        5.42086
C          7.90312        7.48232        5.65224
C          8.85783        8.32424        6.22791
C         10.08666        7.81631        6.67473
C         10.35444        6.45399        6.47195
C          9.41886        5.62104        5.85631
C         11.08087        8.70333        7.39651
O         10.76376        9.92500        7.55398
O         12.15341        8.15681        7.80929
H          4.74383        1.26973       -0.75181
H          6.13617        2.69581        0.70776
H          3.14132        2.44753        3.79862
H          1.82381        0.92066        2.37549
H          5.58880        5.24585        1.69974
H          7.24217        6.57302        2.93854
H          7.14480        3.70666        6.15187
H          5.62380        2.29560        4.84074
H          6.93300        7.89440        5.38385
H          8.65083        9.38766        6.33463
H         11.31119        6.04559        6.79077
H          9.66561        4.57441        5.70081
