16

O          1.17717        0.08370       -0.03959
C          2.44722        0.01980       -0.10624
O          3.11483       -0.98216       -0.50894
C          3.20140        1.20959        0.39423
C          2.78908        1.86588        1.56068
C          3.48558        2.97649        2.05441
F          3.01081        3.51957        3.18575
C          4.61670        3.48936        1.40790
C          5.01453        2.82781        0.23608
C          4.32215        1.70996       -0.26049
F          4.75311        1.15503       -1.40543
F          6.08022        3.24043       -0.47065
C          5.35996        4.68281        1.94123
O          6.37924        5.09727        1.30173
O          4.93791        5.22875        3.01170
H          1.91622        1.50522        2.09958
