20

O          1.10186       -0.22383        0.03449
C          2.37106       -0.13009        0.01514
O          3.00981        0.88459       -0.39842
C          3.13568       -1.27166        0.53915
C          2.63255       -2.71888        0.47019
C          4.04535       -3.18075        0.07506
C          4.53408       -1.72119        0.14796
C          4.92077       -1.92395        1.60901
C          3.46342       -1.43389        2.02262
C          2.95783       -2.93822        1.94699
C          4.39714       -3.40276        1.54729
C          5.12907       -4.56541        2.05364
O          4.58453       -5.28336        2.94635
O          6.27435       -4.79662        1.54959
Br         1.77537       -3.65426        3.18093
Br         6.44702       -1.31510        2.47266
Br         5.63768       -0.99717       -1.16707
H          1.72716       -3.04602       -0.02756
H          4.25306       -3.86860       -0.73643
H          3.24051       -0.73451        2.81844
