20

O          1.24259       -0.02714       -0.22362
C          2.50863        0.00676       -0.14728
O          3.19938        0.43755        0.82574
C          3.28774       -0.53062       -1.35890
C          3.89562       -0.95315       -2.31535
C          4.60242       -1.45713       -3.47892
C          5.29745       -0.59464       -4.33178
C          5.94125       -1.07703       -5.49730
Br         6.82509        0.21428       -6.58853
C          5.91963       -2.43962       -5.84384
C          5.23591       -3.30131       -4.96694
C          4.58891       -2.81768       -3.80174
Br         5.12311       -5.17550       -5.30180
C          6.56493       -2.92276       -7.05197
C          7.10685       -3.30586       -8.06461
C          7.79912       -3.78227       -9.34125
O          8.94162       -4.31412       -9.19764
O          7.17014       -3.60337      -10.42812
H          5.33397        0.46734       -4.09825
H          4.06220       -3.51000       -3.14755
