20

O          1.10212        0.20100       -0.01634
C          2.37193        0.33767       -0.01577
O          3.05283        1.38842       -0.01142
C          3.12261       -0.98691       -0.02125
C          4.42566       -1.30503       -0.02257
C          5.10203       -2.63631       -0.02808
C          4.53680       -3.87941       -0.03322
C          5.34758       -5.26605       -0.03896
O          4.62101       -6.30885       -0.04328
O          6.60841       -5.21834       -0.03877
C          3.06181       -4.19547       -0.03453
C          6.62593       -2.52108       -0.02760
H          2.33111       -1.70803       -0.02424
H          5.10138       -0.44806       -0.01902
H          2.38380       -3.37079       -0.03112
H          2.78840       -4.75556        0.86399
H          2.78840       -4.74811       -0.93766
H          6.99708       -1.49135       -0.02334
H          7.05274       -2.98806       -0.92459
H          7.05274       -2.99547        0.86549
