19

O          1.39018        0.21105       -0.44380
C          2.61517        0.06222       -0.22647
O          3.57274        0.53872       -0.92227
C          3.09938       -0.79318        1.02264
C          2.32761       -1.42181        1.94060
C          0.83065       -1.63989        2.25906
O         -0.06512       -1.14623        1.53819
O          0.66381       -2.35583        3.30451
C          4.63753       -0.84618        1.10004
C          5.26796       -1.63850        2.25703
C          6.78939       -1.62264        2.23387
H          2.85251       -1.96315        2.73109
H          5.01454        0.18449        1.15744
H          5.01454       -1.27229        0.15982
H          4.93847       -2.68293        2.21269
H          4.93847       -1.21960        3.21480
H          7.17800       -2.07023        1.31415
H          7.17640       -2.20186        3.07967
H          7.17800       -0.60332        2.31871
