22

O          1.21598        0.11892        0.10696
C          2.48392        0.09863        0.04082
O          3.18183       -0.19395       -0.97884
C          3.24398        0.48235        1.31944
C          3.84108        0.78140        2.33137
C          4.58377        1.13630        3.53197
C          4.61419        2.46556        3.98546
C          5.45300        2.84770        5.05716
O          5.56175        4.17030        5.40727
C          6.19182        1.90241        5.78306
C          6.04820        0.55366        5.41988
C          5.30816        0.18779        4.27073
O          5.29884       -1.12023        3.85387
C          7.10283        2.29943        6.84296
C          7.88552        2.66528        7.69592
C          8.86937        3.13254        8.77527
O          8.70438        2.64202        9.93457
O          9.76886        3.95605        8.42193
H          3.98346        3.20037        3.49423
H          5.09506        4.72319        4.76491
H          6.52033       -0.20628        6.03568
H          5.91959       -1.63930        4.38553
