19

O          1.19267       -0.04557        0.07155
C          2.46778        0.00651        0.06706
O          3.14911        1.08330        0.04841
C          3.22634       -1.31155        0.08328
C          4.62222       -1.35233        0.09473
C          5.30804       -2.57876        0.09278
C          4.64364       -3.82961        0.07942
C          3.22965       -3.79699        0.08586
C          2.55300       -2.54396        0.08417
C          2.34279       -5.01100        0.09534
C          5.51349       -5.09808        0.05173
O          6.77944       -4.93811        0.05785
O          4.96085       -6.24564        0.01914
H          5.18416       -0.42099        0.09999
H          6.39726       -2.56288        0.09728
H          1.46259       -2.52392        0.08048
H          2.85391       -5.96649        0.11001
H          1.71087       -5.01403       -0.79865
H          1.71035       -4.99670        0.98918
