15

O          1.06406        0.03554        0.17064
C          2.32187        0.09122        0.00870
O          2.96319        0.44372       -1.01655
C          3.11707       -0.33741        1.25536
C          4.45876       -0.34127        1.26658
C          5.31520       -0.72281        2.37629
C          6.66676       -0.72697        2.38838
C          7.64892       -0.31077        1.17787
O          8.88534       -0.40222        1.44386
O          7.12289        0.06262        0.09189
O          7.34208       -1.12988        3.56024
H          2.53709       -0.63459        2.11972
H          4.95006       -0.02618        0.35014
H          4.77848       -1.03039        3.27087
H          6.68790       -1.36029        4.23037
