26

O          1.18751        0.11645       -0.07275
C          2.46278        0.05446       -0.10450
O          3.13080       -1.00760        0.10867
C          3.21042        1.28742       -0.38617
C          4.53711        1.65902        0.32737
C          5.14049        2.06446       -1.05509
C          3.79980        1.72577       -1.69332
C          3.32813        3.12485       -1.52440
C          2.67358        2.72293       -0.15151
C          4.05498        3.07378        0.50942
C          4.65907        3.52816       -0.83654
C          5.45695        4.72033       -1.14596
O          5.66730        5.58107       -0.22980
O          5.90636        4.83220       -2.33803
N          4.12262        3.75187        1.75016
N          2.62745        3.87515       -2.50534
N          3.72446        0.99995       -2.91613
H          5.05012        1.05980        1.06937
H          6.11895        1.75966       -1.40595
H          1.69288        3.01768        0.19604
H          3.54381        3.36058        2.48232
H          3.88898        4.74019        1.63686
H          1.83795        3.35913       -2.88323
H          3.24438        4.08552       -3.29193
H          4.05783        0.04217       -2.79903
H          4.26869        1.42066       -3.66256
