17

O          1.25994       -0.06914       -0.26734
C          2.51979       -0.05606       -0.39890
O          3.19500        0.04975       -1.46344
C          3.30564       -0.18447        0.89290
C          4.60765       -0.21466        1.19665
C          5.16322       -0.34933        2.55138
C          4.49544       -0.46595        3.72466
C          3.05082       -0.52605        4.32924
O          2.04257       -0.45454        3.60985
O          3.06785       -0.65270        5.60340
C          6.69177       -0.35338        2.59215
H          2.58462       -0.26310        1.68390
H          5.31111       -0.13246        0.36967
H          5.14434       -0.55337        4.60410
H          7.15032       -0.25481        1.60050
H          7.07928       -1.28740        3.01934
H          7.07928        0.47827        3.19486
