12

O          0.95715        0.03703        0.08242
C          2.37715        0.03703        0.08242
O          3.01260       -0.89494       -0.50309
C          3.13715        1.15168        0.78268
C          3.78908        2.10782        1.38336
C          4.54908        3.22247        2.08362
C          5.20100        4.17861        2.68431
C          5.96100        5.29325        3.38457
C          6.61293        6.24940        3.98525
C          7.37293        7.36404        4.68552
O          7.03147        8.57521        4.50754
O          8.46445        7.05210        5.53856
