17

O          1.35404        0.44269       -0.20640
C          2.58698        0.21341       -0.15150
O          3.52339        1.06018       -0.35426
C          3.12060       -1.27298        0.20441
C          2.37040       -2.36732        0.46645
C          0.87127       -2.73066        0.55345
O         -0.02325       -1.88029        0.34983
O          0.69481       -3.96186        0.84825
O          4.53299       -1.30834        0.21288
C          5.23954       -2.50688        0.49986
C          6.73921       -2.23003        0.43357
H          2.89962       -3.29406        0.68835
H          4.99661       -3.27704       -0.23963
H          4.99661       -2.85858        1.50798
H          7.03110       -1.86663       -0.55791
H          7.31259       -3.13739        0.65083
H          7.03110       -1.45697        1.15294
