15

O          1.28298       -0.13683       -0.19552
C          2.54169       -0.24977       -0.26814
O          3.21895       -1.14831       -0.84585
C          3.32782        0.83953        0.43223
C          4.62628        1.10794        0.60480
C          5.14225        2.26096        1.34614
C          4.49274        3.24857        1.98112
C          3.05781        3.74743        2.30186
O          2.05580        3.13125        1.90569
O          3.05926        4.82394        2.99401
O          6.54370        2.32654        1.38830
H          2.60313        1.50571        0.86055
H          5.33570        0.41435        0.15886
H          5.15899        3.97960        2.45114
H          6.89296        1.56711        0.90002
