11

O          0.86072        0.03982       -0.51692
C          2.03451       -0.00182       -0.01570
O          2.32874       -0.10247        1.19581
C          3.12665        0.08825       -1.09993
C          4.47355        0.09046       -1.12656
C          5.53204       -0.01054        0.08921
O          6.75151        0.02087       -0.28892
O          5.11392       -0.10854        1.26886
O          5.09286        0.19617       -2.39893
H          2.61037        0.16801       -2.06002
H          4.39582        0.25136       -3.06331
