16

C          1.22332        0.28202       -0.32064
C          2.68587        0.09797       -0.01920
C          2.96542       -0.67980        1.25458
C          2.05167       -1.20658        2.11731
C          0.49807       -1.34151        2.33829
O         -0.31253       -0.83464        1.50819
O          0.17888       -1.97928        3.38280
C          4.53224       -0.84025        1.51737
O          5.28606       -0.30604        0.64245
O          4.88460       -1.47335        2.55422
H          1.00926        0.83819       -1.23150
H          0.77625        0.84894        0.50265
H          0.77625       -0.70933       -0.44882
H          3.14562        1.09238        0.04964
H          3.14562       -0.41757       -0.87232
H          2.50699       -1.72671        2.96916
