12

O          1.11239       -0.14097       -0.00754
C          2.37895       -0.07514        0.03664
O          3.07120        0.80718        0.63046
C          3.15155       -1.17217       -0.70161
C          3.76405       -2.03773       -1.28396
C          4.55740       -3.16154       -2.04096
C          5.16351       -4.02961       -2.62866
C          5.94321       -5.15643       -3.39536
C          6.54241       -6.02487       -3.98720
C          7.30303       -7.12466       -4.73426
O          8.29060       -7.64300       -4.12922
O          6.88065       -7.42257       -5.89312
