14

O          0.84839        0.01360        0.45104
C          2.03357       -0.00487        0.00178
O          2.38902       -0.05426       -1.19985
C          3.08844        0.04047        1.10480
C          4.42967        0.03962        1.08416
C          5.31093       -0.00773       -0.06773
C          6.65252       -0.00698       -0.04949
C          7.47098       -0.06110       -1.36620
O          8.73192       -0.05415       -1.19712
O          6.86230       -0.10650       -2.47075
F          7.31117        0.04185        1.13850
F          4.71688       -0.05717       -1.27075
F          5.03305        0.08970        2.30261
H          2.62034        0.08091        2.08870
