10

N          1.07041        0.06660       -0.02464
C          2.33137        0.06660       -0.02464
C          3.85137        0.06660       -0.02464
C          4.53157        0.64359        1.00254
C          3.77157        1.28827        2.15023
N          3.14109        1.82308        3.10233
N          5.89803        0.68818        1.08192
H          4.33825       -0.40633       -0.86657
H          6.46689        0.27794        0.35160
H          6.35684        1.13249        1.87290
